@<TRIPOS>MOLECULE
C:\Users\inukai\Desktop\RASPA2\JUC-597_hea_net_exp_tetra(aminophenyl)_methane.xyz
 80 88 0 0 0
SMALL
GASTEIGER

@<TRIPOS>ATOM
      1 C           0.5947   29.9947   19.0075 C.ar    1  UNL1       -0.0315
      2 C           0.7964   32.4042   19.0075 C.ar    1  UNL1       -0.0315
      3 C          -1.3911   31.3741   19.0075 C.ar    1  UNL1       -0.0309
      4 C           1.1107   28.8985   18.3157 C.ar    1  UNL1       -0.0574
      5 C           1.4878   33.3991   18.3157 C.ar    1  UNL1       -0.0574
      6 C          -2.5984   31.4754   18.3157 C.ar    1  UNL1       -0.0491
      7 C           1.6301   27.8065   19.0385 C.ar    1  UNL1       -0.0615
      8 C           2.1737   34.3950   19.0385 C.ar    1  UNL1       -0.0615
      9 C          -3.8039   31.5715   19.0385 C.ar    1  UNL1       -0.0098
     10 C          -5.5572   30.6830   17.5060 C.ar    1  UNL1       -0.0532
     11 C          -5.0748   31.7267   18.3059 C.ar    1  UNL1       -0.0145
     12 C          -5.8726   32.8590   18.5234 C.ar    1  UNL1       -0.0181
     13 C          -7.1725   32.9134   18.0186 C.ar    1  UNL1        0.1325
     14 C          -7.6960   31.8247   17.2997 C.ar    1  UNL1        0.0283
     15 C          -6.8639   30.7266   17.0134 C.ar    1  UNL1       -0.0498
     16 C          -9.1323   31.7947   16.9673 C.2     1  UNL1        0.0381
     17 C         -11.5508   29.2609   15.9283 C.ar    1  UNL1       -0.0011
     18 C         -11.1222   30.4561   16.5170 C.ar    1  UNL1        0.0666
     19 C         -12.0813   31.3390   17.0503 C.ar    1  UNL1       -0.0361
     20 C         -13.4391   31.0239   16.9909 C.ar    1  UNL1       -0.0570
     21 C         -13.8677   29.8212   16.4070 C.ar    1  UNL1       -0.0263
     22 C         -12.9099   28.9426   15.8664 C.ar    1  UNL1        0.1254
     23 C          -9.8729   32.0620   28.4635 C.ar    1  UNL1        0.1254
     24 C         -11.1436   31.4834   28.2877 C.ar    1  UNL1       -0.0263
     25 C         -11.4963   30.9859   27.0213 C.ar    1  UNL1       -0.0570
     26 C         -10.6025   31.0703   25.9493 C.ar    1  UNL1       -0.0361
     27 C          -9.3316   31.6475   26.1305 C.ar    1  UNL1        0.0666
     28 C          -8.9837   32.1478   27.3900 C.ar    1  UNL1       -0.0011
     29 C          -8.3790   31.1322   23.9346 C.2     1  UNL1        0.0381
     30 C          -5.0304   31.5082   21.2717 C.ar    1  UNL1       -0.0145
     31 C           1.6556   27.8393   20.4599 C.ar    1  UNL1       -0.0615
     32 C           2.1326   34.4006   20.4599 C.ar    1  UNL1       -0.0615
     33 C          -3.7882   31.5331   20.4599 C.ar    1  UNL1       -0.0098
     34 C           1.1161   28.9416   21.1445 C.ar    1  UNL1       -0.0574
     35 C           1.4477   33.3823   21.1445 C.ar    1  UNL1       -0.0574
     36 C          -2.5638   31.4491   21.1445 C.ar    1  UNL1       -0.0491
     37 C           0.5909   30.0041   20.4242 C.ar    1  UNL1       -0.0315
     38 C           0.7902   32.3962   20.4242 C.ar    1  UNL1       -0.0315
     39 C          -1.3811   31.3727   20.4242 C.ar    1  UNL1       -0.0309
     40 C          -5.1982   32.4141   22.3284 C.ar    1  UNL1       -0.0532
     41 C          -6.3032   32.3156   23.1745 C.ar    1  UNL1       -0.0498
     42 C          -7.2645   31.3071   22.9795 C.ar    1  UNL1        0.0283
     43 C          -6.0030   30.5184   21.0567 C.ar    1  UNL1       -0.0181
     44 C          -7.1183   30.4247   21.8949 C.ar    1  UNL1        0.1325
     45 C          -0.0000   31.2577   18.3762 C.3     1  UNL1        0.0351
     46 C          -0.0000   31.2577   21.0480 C.3     1  UNL1        0.0351
     47 N          -9.7108   30.6708   16.6673 N.2     1  UNL1       -0.2548
     48 N          -8.3649   31.7577   25.0733 N.2     1  UNL1       -0.2548
     49 F         -13.2821   27.7521   15.3312 F       1  UNL1       -0.2054
     50 F          -9.4753   32.5131   29.6809 F       1  UNL1       -0.2054
     51 F          -7.9450   33.9924   18.3055 F       1  UNL1       -0.2048
     52 F          -8.0254   29.4393   21.6755 F       1  UNL1       -0.2048
     53 H           1.0958   28.8877   17.2329 H       1  UNL1        0.0621
     54 H           1.5046   33.3916   17.2329 H       1  UNL1        0.0621
     55 H          -2.6003   31.4937   17.2329 H       1  UNL1        0.0627
     56 H          -4.9511   29.8029   17.3302 H       1  UNL1        0.0624
     57 H          -5.5055   33.6748   19.1352 H       1  UNL1        0.0652
     58 H          -7.2377   29.8794   16.4522 H       1  UNL1        0.0625
     59 H          -9.7089   32.7024   17.0783 H       1  UNL1        0.0836
     60 H         -10.8220   28.5605   15.5394 H       1  UNL1        0.0667
     61 H         -11.7947   32.2518   17.5521 H       1  UNL1        0.0639
     62 H         -14.1576   31.7169   17.4112 H       1  UNL1        0.0619
     63 H         -12.4752   30.5508   26.8568 H       1  UNL1        0.0619
     64 H         -10.9235   30.7018   24.9859 H       1  UNL1        0.0639
     65 H          -8.0081   32.5922   27.5428 H       1  UNL1        0.0667
     66 H          -9.1521   30.4120   23.7073 H       1  UNL1        0.0836
     67 H           1.1342   28.9871   22.2263 H       1  UNL1        0.0621
     68 H           1.3992   33.3752   22.2263 H       1  UNL1        0.0621
     69 H          -2.5335   31.4107   22.2263 H       1  UNL1        0.0627
     70 H          -4.4587   33.1849   22.5116 H       1  UNL1        0.0624
     71 H          -6.3926   33.0170   23.9950 H       1  UNL1        0.0625
     72 H          -5.8780   29.7917   20.2636 H       1  UNL1        0.0652
     73 H          -0.0000   31.2577   17.2650 H       1  UNL1        0.0446
     74 H          -0.0000   31.2577   22.1597 H       1  UNL1        0.0446
     75 H           1.9928   26.9815   18.5356 H       1  UNL1        0.0618
     76 H           2.7069   35.1216   18.5356 H       1  UNL1        0.0618
     77 H         -14.8716   29.5844   16.3746 H       1  UNL1        0.0646
     78 H         -11.8064   31.4252   29.0766 H       1  UNL1        0.0646
     79 H           2.0695   27.0551   20.9877 H       1  UNL1        0.0618
     80 H           2.6048   35.1512   20.9877 H       1  UNL1        0.0618
@<TRIPOS>BOND
     1    49    22    1
     2    60    17    1
     3    22    17   ar
     4    22    21   ar
     5    17    18   ar
     6    77    21    1
     7    21    20   ar
     8    58    15    1
     9    18    47    1
    10    18    19   ar
    11    47    16    2
    12    16    59    1
    13    16    14    1
    14    20    19   ar
    15    20    62    1
    16    15    14   ar
    17    15    10   ar
    18    19    61    1
    19    53     4    1
    20    54     5    1
    21    55     6    1
    22    73    45    1
    23    14    13   ar
    24    56    10    1
    25    10    11   ar
    26    13    51    1
    27    13    12   ar
    28    11    12   ar
    29    11     9    1
    30     4     1   ar
    31     4     7   ar
    32     6     3   ar
    33     6     9   ar
    34     5     2   ar
    35     5     8   ar
    36    45     2    1
    37    45     3    1
    38    45     1    1
    39    12    57    1
    40    75     7    1
    41    76     8    1
    42     2    38   ar
    43     3    39   ar
    44     1    37   ar
    45     9    33   ar
    46     8    32   ar
    47     7    31   ar
    48    72    43    1
    49    39    46    1
    50    39    36   ar
    51    37    46    1
    52    37    34   ar
    53    38    46    1
    54    38    35   ar
    55    32    80    1
    56    32    35   ar
    57    33    36   ar
    58    33    30    1
    59    31    79    1
    60    31    34   ar
    61    46    74    1
    62    43    30   ar
    63    43    44   ar
    64    35    68    1
    65    34    67    1
    66    36    69    1
    67    30    40   ar
    68    52    44    1
    69    44    42   ar
    70    40    70    1
    71    40    41   ar
    72    42    41   ar
    73    42    29    1
    74    41    71    1
    75    66    29    1
    76    29    48    2
    77    64    26    1
    78    48    27    1
    79    26    27   ar
    80    26    25   ar
    81    27    28   ar
    82    63    25    1
    83    25    24   ar
    84    28    65    1
    85    28    23   ar
    86    24    23   ar
    87    24    78    1
    88    23    50    1
