@<TRIPOS>MOLECULE
C:\Users\inukai\Desktop\RASPA2\JUC-597_hea_net_exp_extended_benzene_rings_of_triptycene fragment.xyz
 172 188 0 0 0
SMALL
GASTEIGER

@<TRIPOS>ATOM
      1 C           0.5947   29.9947   19.0075 C.ar    1  UNL1       -0.0309
      2 C           0.7964   32.4042   19.0075 C.ar    1  UNL1       -0.0309
      3 C          -1.3911   31.3741   19.0075 C.ar    1  UNL1       -0.0309
      4 C           1.1107   28.8985   18.3157 C.ar    1  UNL1       -0.0491
      5 C           1.4878   33.3991   18.3157 C.ar    1  UNL1       -0.0491
      6 C          -2.5984   31.4754   18.3157 C.ar    1  UNL1       -0.0491
      7 C           1.6301   27.8065   19.0385 C.ar    1  UNL1       -0.0098
      8 C           2.1737   34.3950   19.0385 C.ar    1  UNL1       -0.0098
      9 C          -3.8039   31.5715   19.0385 C.ar    1  UNL1       -0.0098
     10 C           3.2763   26.7324   17.5060 C.ar    1  UNL1       -0.0532
     11 C           2.2809   36.3577   17.5060 C.ar    1  UNL1       -0.0532
     12 C          -5.5572   30.6830   17.5060 C.ar    1  UNL1       -0.0532
     13 C           2.1312   26.6283   18.3059 C.ar    1  UNL1       -0.0145
     14 C           2.9436   35.4181   18.3059 C.ar    1  UNL1       -0.0145
     15 C          -5.0748   31.7267   18.3059 C.ar    1  UNL1       -0.0145
     16 C           1.5495   25.3712   18.5234 C.ar    1  UNL1       -0.0181
     17 C           4.3231   35.5428   18.5234 C.ar    1  UNL1       -0.0181
     18 C          -5.8726   32.8590   18.5234 C.ar    1  UNL1       -0.0181
     19 C           2.1523   24.2183   18.0186 C.ar    1  UNL1        0.1325
     20 C           5.0201   36.6414   18.0186 C.ar    1  UNL1        0.1325
     21 C          -7.1725   32.9134   18.0186 C.ar    1  UNL1        0.1325
     22 C           3.3569   24.3093   17.2997 C.ar    1  UNL1        0.0283
     23 C           4.3390   37.6391   17.2997 C.ar    1  UNL1        0.0283
     24 C          -7.6960   31.8247   17.2997 C.ar    1  UNL1        0.0283
     25 C           3.8918   25.5789   17.0134 C.ar    1  UNL1       -0.0498
     26 C           2.9720   37.4675   17.0134 C.ar    1  UNL1       -0.0498
     27 C          -6.8639   30.7266   17.0134 C.ar    1  UNL1       -0.0498
     28 C           4.1011   23.0804   16.9673 C.2     1  UNL1        0.0381
     29 C           5.0312   38.8980   16.9673 C.2     1  UNL1        0.0381
     30 C          -9.1323   31.7947   16.9673 C.2     1  UNL1        0.0381
     31 C           7.5046   22.2528   15.9283 C.ar    1  UNL1       -0.0011
     32 C           4.0461   42.2593   15.9283 C.ar    1  UNL1       -0.0011
     33 C         -11.5508   29.2609   15.9283 C.ar    1  UNL1       -0.0011
     34 C           6.2553   22.0264   16.5170 C.ar    1  UNL1        0.0666
     35 C           4.8669   41.2906   16.5170 C.ar    1  UNL1        0.0666
     36 C         -11.1222   30.4561   16.5170 C.ar    1  UNL1        0.0666
     37 C           5.9703   20.7543   17.0503 C.ar    1  UNL1       -0.0361
     38 C           6.1110   41.6798   17.0503 C.ar    1  UNL1       -0.0361
     39 C         -12.0813   31.3390   17.0503 C.ar    1  UNL1       -0.0361
     40 C           6.9221   19.7359   16.9909 C.ar    1  UNL1       -0.0570
     41 C           6.5171   43.0132   16.9909 C.ar    1  UNL1       -0.0570
     42 C         -13.4391   31.0239   16.9909 C.ar    1  UNL1       -0.0570
     43 C           8.1778   19.9662   16.4070 C.ar    1  UNL1       -0.0263
     44 C           5.6898   43.9857   16.4070 C.ar    1  UNL1       -0.0263
     45 C         -13.8677   29.8212   16.4070 C.ar    1  UNL1       -0.0263
     46 C           8.4599   21.2349   15.8664 C.ar    1  UNL1        0.1254
     47 C           4.4500   43.5956   15.8664 C.ar    1  UNL1        0.1254
     48 C         -12.9099   28.9426   15.8664 C.ar    1  UNL1        0.1254
     49 C           4.2400   22.3053   28.4635 C.ar    1  UNL1        0.1254
     50 C           5.6330   39.4058   28.4635 C.ar    1  UNL1        0.1254
     51 C          -9.8729   32.0620   28.4635 C.ar    1  UNL1        0.1254
     52 C           5.3764   21.4942   28.2877 C.ar    1  UNL1       -0.0263
     53 C           5.7672   40.7955   28.2877 C.ar    1  UNL1       -0.0263
     54 C         -11.1436   31.4834   28.2877 C.ar    1  UNL1       -0.0263
     55 C           5.9835   21.4375   27.0213 C.ar    1  UNL1       -0.0570
     56 C           5.5128   41.3497   27.0213 C.ar    1  UNL1       -0.0570
     57 C         -11.4963   30.9859   27.0213 C.ar    1  UNL1       -0.0570
     58 C           5.4635   22.1694   25.9493 C.ar    1  UNL1       -0.0361
     59 C           5.1390   40.5334   25.9493 C.ar    1  UNL1       -0.0361
     60 C         -10.6025   31.0703   25.9493 C.ar    1  UNL1       -0.0361
     61 C           4.3282   22.9814   26.1305 C.ar    1  UNL1        0.0666
     62 C           5.0033   39.1442   26.1305 C.ar    1  UNL1        0.0666
     63 C          -9.3316   31.6475   26.1305 C.ar    1  UNL1        0.0666
     64 C           3.7210   23.0325   27.3900 C.ar    1  UNL1       -0.0011
     65 C           5.2627   38.5928   27.3900 C.ar    1  UNL1       -0.0011
     66 C          -8.9837   32.1478   27.3900 C.ar    1  UNL1       -0.0011
     67 C           4.2982   24.0640   23.9346 C.2     1  UNL1        0.0381
     68 C           4.0808   38.5768   23.9346 C.2     1  UNL1        0.0381
     69 C          -8.3790   31.1322   23.9346 C.2     1  UNL1        0.0381
     70 C           2.2982   26.7760   21.2717 C.ar    1  UNL1       -0.0145
     71 C           2.7322   35.4889   21.2717 C.ar    1  UNL1       -0.0145
     72 C          -5.0304   31.5082   21.2717 C.ar    1  UNL1       -0.0145
     73 C           1.6556   27.8393   20.4599 C.ar    1  UNL1       -0.0098
     74 C           2.1326   34.4006   20.4599 C.ar    1  UNL1       -0.0098
     75 C          -3.7882   31.5331   20.4599 C.ar    1  UNL1       -0.0098
     76 C           1.1161   28.9416   21.1445 C.ar    1  UNL1       -0.0491
     77 C           1.4477   33.3823   21.1445 C.ar    1  UNL1       -0.0491
     78 C          -2.5638   31.4491   21.1445 C.ar    1  UNL1       -0.0491
     79 C           0.5909   30.0041   20.4242 C.ar    1  UNL1       -0.0309
     80 C           0.7902   32.3962   20.4242 C.ar    1  UNL1       -0.0309
     81 C          -1.3811   31.3727   20.4242 C.ar    1  UNL1       -0.0309
     82 C           1.5977   26.1777   22.3284 C.ar    1  UNL1       -0.0532
     83 C           3.6006   35.1813   22.3284 C.ar    1  UNL1       -0.0532
     84 C          -5.1982   32.4141   22.3284 C.ar    1  UNL1       -0.0532
     85 C           2.2354   25.2700   23.1745 C.ar    1  UNL1       -0.0498
     86 C           4.0678   36.1875   23.1745 C.ar    1  UNL1       -0.0498
     87 C          -6.3032   32.3156   23.1745 C.ar    1  UNL1       -0.0498
     88 C           3.5895   24.9418   22.9795 C.ar    1  UNL1        0.0283
     89 C           3.6750   37.5242   22.9795 C.ar    1  UNL1        0.0283
     90 C          -7.2645   31.3071   22.9795 C.ar    1  UNL1        0.0283
     91 C           3.6417   26.4285   21.0567 C.ar    1  UNL1       -0.0181
     92 C           2.3613   36.8261   21.0567 C.ar    1  UNL1       -0.0181
     93 C          -6.0030   30.5184   21.0567 C.ar    1  UNL1       -0.0181
     94 C           4.2806   25.5096   21.8949 C.ar    1  UNL1        0.1325
     95 C           2.8377   37.8388   21.8949 C.ar    1  UNL1        0.1325
     96 C          -7.1183   30.4247   21.8949 C.ar    1  UNL1        0.1325
     97 C          -0.0000   31.2577   18.3762 C.3     1  UNL1        0.0351
     98 C          -0.0000   31.2577   21.0480 C.3     1  UNL1        0.0351
     99 N           5.3636   23.1413   16.6673 N.2     1  UNL1       -0.2548
    100 N           4.3472   39.9609   16.6673 N.2     1  UNL1       -0.2548
    101 N          -9.7108   30.6708   16.6673 N.2     1  UNL1       -0.2548
    102 N           3.7495   23.7635   25.0733 N.2     1  UNL1       -0.2548
    103 N           4.6154   38.2519   25.0733 N.2     1  UNL1       -0.2548
    104 N          -8.3649   31.7577   25.0733 N.2     1  UNL1       -0.2548
    105 F           9.6770   21.5078   15.3312 F       1  UNL1       -0.2054
    106 F           3.6052   44.5131   15.3312 F       1  UNL1       -0.2054
    107 F         -13.2821   27.7521   15.3312 F       1  UNL1       -0.2054
    108 F          -9.4753   32.5131   29.6809 F       1  UNL1       -0.2054
    109 F           3.6504   22.4241   29.6809 F       1  UNL1       -0.2054
    110 F           5.8249   38.8358   29.6809 F       1  UNL1       -0.2054
    111 F           6.3409   36.7709   18.3055 F       1  UNL1       -0.2048
    112 F           1.6042   23.0097   18.3055 F       1  UNL1       -0.2048
    113 F          -7.9450   33.9924   18.3055 F       1  UNL1       -0.2048
    114 F           2.4379   39.1171   21.6755 F       1  UNL1       -0.2048
    115 F           5.5875   25.2167   21.6755 F       1  UNL1       -0.2048
    116 F          -8.0254   29.4393   21.6755 F       1  UNL1       -0.2048
    117 H           1.0958   28.8877   17.2329 H       1  UNL1        0.0627
    118 H           1.5046   33.3916   17.2329 H       1  UNL1        0.0627
    119 H          -2.6003   31.4937   17.2329 H       1  UNL1        0.0627
    120 H           3.7354   27.6973   17.3302 H       1  UNL1        0.0624
    121 H           1.2157   36.2728   17.3302 H       1  UNL1        0.0624
    122 H          -4.9511   29.8029   17.3302 H       1  UNL1        0.0624
    123 H           0.6594   25.2812   19.1352 H       1  UNL1        0.0652
    124 H           4.8461   34.8170   19.1352 H       1  UNL1        0.0652
    125 H          -5.5055   33.6748   19.1352 H       1  UNL1        0.0652
    126 H           4.8125   25.6788   16.4522 H       1  UNL1        0.0625
    127 H           2.4252   38.2149   16.4522 H       1  UNL1        0.0625
    128 H          -7.2377   29.8794   16.4522 H       1  UNL1        0.0625
    129 H           3.6033   22.1272   17.0783 H       1  UNL1        0.0836
    130 H           6.1056   38.9435   17.0783 H       1  UNL1        0.0836
    131 H          -9.7089   32.7024   17.0783 H       1  UNL1        0.0836
    132 H           7.7469   23.2341   15.5394 H       1  UNL1        0.0667
    133 H           3.0751   41.9785   15.5394 H       1  UNL1        0.0667
    134 H         -10.8220   28.5605   15.5394 H       1  UNL1        0.0667
    135 H           5.0364   20.5462   17.5521 H       1  UNL1        0.0639
    136 H           6.7583   40.9751   17.5521 H       1  UNL1        0.0639
    137 H         -11.7947   32.2518   17.5521 H       1  UNL1        0.0639
    138 H           6.6811   18.7673   17.4112 H       1  UNL1        0.0619
    139 H           7.4764   43.2889   17.4112 H       1  UNL1        0.0619
    140 H         -14.1576   31.7169   17.4112 H       1  UNL1        0.0619
    141 H           6.8498   20.8073   26.8568 H       1  UNL1        0.0619
    142 H           5.6254   42.4150   26.8568 H       1  UNL1        0.0619
    143 H         -12.4752   30.5508   26.8568 H       1  UNL1        0.0619
    144 H           5.9432   22.0756   24.9859 H       1  UNL1        0.0639
    145 H           4.9803   40.9957   24.9859 H       1  UNL1        0.0639
    146 H         -10.9235   30.7018   24.9859 H       1  UNL1        0.0639
    147 H           2.8483   23.6552   27.5428 H       1  UNL1        0.0667
    148 H           5.1598   37.5256   27.5428 H       1  UNL1        0.0667
    149 H          -8.0081   32.5922   27.5428 H       1  UNL1        0.0667
    150 H           5.3084   23.7546   23.7073 H       1  UNL1        0.0836
    151 H           3.8437   39.6065   23.7073 H       1  UNL1        0.0836
    152 H          -9.1521   30.4120   23.7073 H       1  UNL1        0.0836
    153 H           1.1342   28.9871   22.2263 H       1  UNL1        0.0627
    154 H           1.3992   33.3752   22.2263 H       1  UNL1        0.0627
    155 H          -2.5335   31.4107   22.2263 H       1  UNL1        0.0627
    156 H           0.5604   26.4327   22.5116 H       1  UNL1        0.0624
    157 H           3.8983   34.1554   22.5116 H       1  UNL1        0.0624
    158 H          -4.4587   33.1849   22.5116 H       1  UNL1        0.0624
    159 H           1.6726   24.8419   23.9950 H       1  UNL1        0.0625
    160 H           4.7199   35.9141   23.9950 H       1  UNL1        0.0625
    161 H          -6.3926   33.0170   23.9950 H       1  UNL1        0.0625
    162 H           4.2086   26.9002   20.2636 H       1  UNL1        0.0652
    163 H           1.6694   37.0812   20.2636 H       1  UNL1        0.0652
    164 H          -5.8780   29.7917   20.2636 H       1  UNL1        0.0652
    165 H          -0.0000   31.2577   17.2650 H       1  UNL1        0.0446
    166 H          -0.0000   31.2577   22.1597 H       1  UNL1        0.0446
    167 H           8.8849   19.2151   16.3746 H       1  UNL1        0.0646
    168 H           5.9867   44.9735   16.3746 H       1  UNL1        0.0646
    169 H         -14.8716   29.5844   16.3746 H       1  UNL1        0.0646
    170 H           5.7581   20.9493   29.0766 H       1  UNL1        0.0646
    171 H           6.0483   41.3986   29.0766 H       1  UNL1        0.0646
    172 H         -11.8064   31.4252   29.0766 H       1  UNL1        0.0646
@<TRIPOS>BOND
     1   106    47    1
     2   105    46    1
     3   107    48    1
     4   134    33    1
     5   133    32    1
     6   132    31    1
     7    48    33   ar
     8    48    45   ar
     9    46    31   ar
    10    46    43   ar
    11    47    32   ar
    12    47    44   ar
    13    31    34   ar
    14    33    36   ar
    15    32    35   ar
    16   167    43    1
    17   168    44    1
    18   169    45    1
    19    43    40   ar
    20    45    42   ar
    21    44    41   ar
    22   126    25    1
    23   127    26    1
    24   128    27    1
    25    34    99    1
    26    34    37   ar
    27    35   100    1
    28    35    38   ar
    29    36   101    1
    30    36    39   ar
    31   100    29    2
    32    99    28    2
    33   101    30    2
    34    30   131    1
    35    30    24    1
    36    29   130    1
    37    29    23    1
    38    28   129    1
    39    28    22    1
    40    41    38   ar
    41    41   139    1
    42    42    39   ar
    43    42   140    1
    44    40    37   ar
    45    40   138    1
    46    26    23   ar
    47    26    11   ar
    48    25    22   ar
    49    25    10   ar
    50    27    24   ar
    51    27    12   ar
    52    37   135    1
    53    38   136    1
    54    39   137    1
    55   119     6    1
    56   118     5    1
    57   117     4    1
    58   165    97    1
    59    24    21   ar
    60    23    20   ar
    61    22    19   ar
    62   121    11    1
    63   120    10    1
    64   122    12    1
    65    11    14   ar
    66    10    13   ar
    67    12    15   ar
    68    19   112    1
    69    19    16   ar
    70    20   111    1
    71    20    17   ar
    72    21   113    1
    73    21    18   ar
    74    13    16   ar
    75    13     7    1
    76    14    17   ar
    77    14     8    1
    78    15    18   ar
    79    15     9    1
    80     4     1   ar
    81     4     7   ar
    82     5     2   ar
    83     5     8   ar
    84     6     3   ar
    85     6     9   ar
    86    97     3    1
    87    97     2    1
    88    97     1    1
    89    16   123    1
    90    17   124    1
    91    18   125    1
    92     3    81   ar
    93     2    80   ar
    94     1    79   ar
    95     7    73   ar
    96     8    74   ar
    97     9    75   ar
    98   162    91    1
    99   163    92    1
   100   164    93    1
   101    81    98    1
   102    81    78   ar
   103    80    98    1
   104    80    77   ar
   105    79    98    1
   106    79    76   ar
   107    73    76   ar
   108    73    70    1
   109    74    77   ar
   110    74    71    1
   111    75    78   ar
   112    75    72    1
   113    98   166    1
   114    91    70   ar
   115    91    94   ar
   116    93    72   ar
   117    93    96   ar
   118    92    71   ar
   119    92    95   ar
   120    78   155    1
   121    77   154    1
   122    76   153    1
   123    70    82   ar
   124    71    83   ar
   125    72    84   ar
   126   116    96    1
   127   115    94    1
   128   114    95    1
   129    96    90   ar
   130    94    88   ar
   131    95    89   ar
   132    83   157    1
   133    83    86   ar
   134    84   158    1
   135    84    87   ar
   136    82   156    1
   137    82    85   ar
   138    88    85   ar
   139    88    67    1
   140    89    86   ar
   141    89    68    1
   142    90    87   ar
   143    90    69    1
   144    85   159    1
   145    87   161    1
   146    86   160    1
   147   152    69    1
   148   151    68    1
   149   150    67    1
   150    67   102    2
   151    68   103    2
   152    69   104    2
   153   146    60    1
   154   144    58    1
   155   145    59    1
   156   104    63    1
   157   103    62    1
   158   102    61    1
   159    59    62   ar
   160    59    56   ar
   161    60    63   ar
   162    60    57   ar
   163    58    61   ar
   164    58    55   ar
   165    61    64   ar
   166    63    66   ar
   167    62    65   ar
   168   141    55    1
   169   143    57    1
   170   142    56    1
   171    57    54   ar
   172    56    53   ar
   173    55    52   ar
   174    65   148    1
   175    65    50   ar
   176    64   147    1
   177    64    49   ar
   178    66   149    1
   179    66    51   ar
   180    53    50   ar
   181    53   171    1
   182    52    49   ar
   183    52   170    1
   184    54    51   ar
   185    54   172    1
   186    51   108    1
   187    49   109    1
   188    50   110    1
