@<TRIPOS>MOLECULE
C:\Users\inukai\Desktop\RASPA2\JUC-596_hea_net_exp_tetra(aminophenyl)_methane.xyz
 80 88 0 0 0
SMALL
GASTEIGER

@<TRIPOS>ATOM
      1 C           0.5949   30.0206   19.0367 C.ar    1  UNL1       -0.0315
      2 C           0.7960   32.4297   19.0367 C.ar    1  UNL1       -0.0315
      3 C          -1.3909   31.3993   19.0367 C.ar    1  UNL1       -0.0309
      4 C           1.1116   28.9249   18.3445 C.ar    1  UNL1       -0.0574
      5 C           1.4865   33.4250   18.3445 C.ar    1  UNL1       -0.0574
      6 C          -2.5981   31.4997   18.3445 C.ar    1  UNL1       -0.0491
      7 C           1.6312   27.8325   19.0681 C.ar    1  UNL1       -0.0615
      8 C           2.1728   34.4212   19.0681 C.ar    1  UNL1       -0.0615
      9 C          -3.8040   31.5959   19.0681 C.ar    1  UNL1       -0.0099
     10 C          -5.5549   30.6991   17.5374 C.ar    1  UNL1       -0.0534
     11 C          -5.0749   31.7465   18.3351 C.ar    1  UNL1       -0.0173
     12 C          -5.8754   32.8779   18.5492 C.ar    1  UNL1       -0.0534
     13 C          -7.1742   32.9257   18.0406 C.ar    1  UNL1       -0.0526
     14 C          -7.6925   31.8375   17.3243 C.ar    1  UNL1       -0.0069
     15 C          -6.8608   30.7386   17.0426 C.ar    1  UNL1       -0.0526
     16 C          -9.1284   31.8160   16.9959 C.2     1  UNL1        0.0354
     17 C         -11.5548   29.3036   15.9228 C.ar    1  UNL1       -0.0011
     18 C         -11.1226   30.4903   16.5252 C.ar    1  UNL1        0.0666
     19 C         -12.0785   31.3697   17.0696 C.ar    1  UNL1       -0.0361
     20 C         -13.4379   31.0581   17.0077 C.ar    1  UNL1       -0.0570
     21 C         -13.8698   29.8634   16.4108 C.ar    1  UNL1       -0.0263
     22 C         -12.9153   28.9892   15.8585 C.ar    1  UNL1        0.1254
     23 C          -9.9043   32.1059   28.4740 C.ar    1  UNL1        0.1254
     24 C         -11.1687   31.5152   28.2933 C.ar    1  UNL1       -0.0263
     25 C         -11.5098   31.0070   27.0282 C.ar    1  UNL1       -0.0570
     26 C         -10.6103   31.0933   25.9610 C.ar    1  UNL1       -0.0361
     27 C          -9.3462   31.6836   26.1466 C.ar    1  UNL1        0.0666
     28 C          -9.0106   32.1937   27.4053 C.ar    1  UNL1       -0.0011
     29 C          -8.3750   31.1642   23.9610 C.2     1  UNL1        0.0354
     30 C          -5.0302   31.5386   21.3012 C.ar    1  UNL1       -0.0173
     31 C           1.6545   27.8644   20.4927 C.ar    1  UNL1       -0.0615
     32 C           2.1335   34.4254   20.4927 C.ar    1  UNL1       -0.0615
     33 C          -3.7880   31.5598   20.4927 C.ar    1  UNL1       -0.0099
     34 C           1.1148   28.9662   21.1741 C.ar    1  UNL1       -0.0574
     35 C           1.4491   33.4072   21.1741 C.ar    1  UNL1       -0.0574
     36 C          -2.5640   31.4762   21.1741 C.ar    1  UNL1       -0.0491
     37 C           0.5909   30.0295   20.4548 C.ar    1  UNL1       -0.0315
     38 C           0.7903   32.4218   20.4548 C.ar    1  UNL1       -0.0315
     39 C          -1.3812   31.3983   20.4548 C.ar    1  UNL1       -0.0309
     40 C          -5.1963   32.4504   22.3543 C.ar    1  UNL1       -0.0534
     41 C          -6.3005   32.3556   23.2031 C.ar    1  UNL1       -0.0526
     42 C          -7.2599   31.3453   23.0121 C.ar    1  UNL1       -0.0069
     43 C          -6.0031   30.5471   21.0916 C.ar    1  UNL1       -0.0534
     44 C          -7.1146   30.4594   21.9340 C.ar    1  UNL1       -0.0526
     45 C          -0.0000   31.2832   18.4055 C.3     1  UNL1        0.0351
     46 C          -0.0000   31.2832   21.0770 C.3     1  UNL1        0.0351
     47 N          -9.7101   30.6996   16.6749 N.2     1  UNL1       -0.2549
     48 N          -8.3752   31.7991   25.0945 N.2     1  UNL1       -0.2549
     49 F         -13.2903   27.8058   15.3101 F       1  UNL1       -0.2054
     50 F          -9.5177   32.5678   29.6906 F       1  UNL1       -0.2054
     51 H           1.0991   28.9146   17.2615 H       1  UNL1        0.0621
     52 H           1.5017   33.4194   17.2615 H       1  UNL1        0.0621
     53 H          -2.6008   31.5156   17.2615 H       1  UNL1        0.0627
     54 H          -4.9470   29.8188   17.3656 H       1  UNL1        0.0624
     55 H          -5.5141   33.6962   19.1604 H       1  UNL1        0.0624
     56 H          -7.7965   33.7831   18.2664 H       1  UNL1        0.0624
     57 H          -7.2344   29.8897   16.4834 H       1  UNL1        0.0624
     58 H          -9.7003   32.7240   17.1314 H       1  UNL1        0.0836
     59 H         -10.8284   28.6058   15.5247 H       1  UNL1        0.0667
     60 H         -11.7899   32.2758   17.5816 H       1  UNL1        0.0639
     61 H         -14.1540   31.7484   17.4373 H       1  UNL1        0.0619
     62 H         -12.4838   30.5626   26.8604 H       1  UNL1        0.0619
     63 H         -10.9219   30.7170   24.9973 H       1  UNL1        0.0639
     64 H          -8.0393   32.6484   27.5604 H       1  UNL1        0.0667
     65 H          -9.1360   30.4298   23.7332 H       1  UNL1        0.0836
     66 H           1.1308   29.0108   22.2566 H       1  UNL1        0.0621
     67 H           1.4026   33.3987   22.2566 H       1  UNL1        0.0621
     68 H          -2.5334   31.4401   22.2566 H       1  UNL1        0.0627
     69 H          -4.4572   33.2218   22.5329 H       1  UNL1        0.0624
     70 H          -6.3902   33.0590   24.0214 H       1  UNL1        0.0624
     71 H          -5.8811   29.8160   20.3027 H       1  UNL1        0.0624
     72 H          -7.8394   29.6706   21.7696 H       1  UNL1        0.0624
     73 H          -0.0000   31.2832   17.2941 H       1  UNL1        0.0446
     74 H          -0.0000   31.2832   22.1890 H       1  UNL1        0.0446
     75 H           1.9954   27.0081   18.5653 H       1  UNL1        0.0618
     76 H           2.7046   35.1488   18.5653 H       1  UNL1        0.0618
     77 H         -14.8743   29.6292   16.3773 H       1  UNL1        0.0646
     78 H         -11.8358   31.4560   29.0785 H       1  UNL1        0.0646
     79 H           2.0669   27.0799   21.0215 H       1  UNL1        0.0618
     80 H           2.6067   35.1748   21.0215 H       1  UNL1        0.0618
@<TRIPOS>BOND
     1    49    22    1
     2    59    17    1
     3    22    17   ar
     4    22    21   ar
     5    17    18   ar
     6    77    21    1
     7    21    20   ar
     8    57    15    1
     9    18    47    1
    10    18    19   ar
    11    47    16    2
    12    16    58    1
    13    16    14    1
    14    20    19   ar
    15    20    61    1
    16    15    14   ar
    17    15    10   ar
    18    19    60    1
    19    52     5    1
    20    51     4    1
    21    53     6    1
    22    73    45    1
    23    14    13   ar
    24    54    10    1
    25    10    11   ar
    26    13    56    1
    27    13    12   ar
    28    11    12   ar
    29    11     9    1
    30     6     3   ar
    31     6     9   ar
    32     5     2   ar
    33     5     8   ar
    34     4     1   ar
    35     4     7   ar
    36    45     1    1
    37    45     3    1
    38    45     2    1
    39    12    55    1
    40    75     7    1
    41    76     8    1
    42     1    37   ar
    43     3    39   ar
    44     2    38   ar
    45     9    33   ar
    46     8    32   ar
    47     7    31   ar
    48    71    43    1
    49    39    46    1
    50    39    36   ar
    51    37    46    1
    52    37    34   ar
    53    38    46    1
    54    38    35   ar
    55    32    80    1
    56    32    35   ar
    57    33    36   ar
    58    33    30    1
    59    31    79    1
    60    31    34   ar
    61    46    74    1
    62    43    30   ar
    63    43    44   ar
    64    35    67    1
    65    34    66    1
    66    36    68    1
    67    30    40   ar
    68    72    44    1
    69    44    42   ar
    70    40    69    1
    71    40    41   ar
    72    42    41   ar
    73    42    29    1
    74    41    70    1
    75    65    29    1
    76    29    48    2
    77    63    26    1
    78    48    27    1
    79    26    27   ar
    80    26    25   ar
    81    27    28   ar
    82    62    25    1
    83    25    24   ar
    84    28    64    1
    85    28    23   ar
    86    24    23   ar
    87    24    78    1
    88    23    50    1
