@<TRIPOS>MOLECULE
C:\Users\inukai\Desktop\RASPA2\JUC-596_hea_net_exp_dihedral_region_of_triptycene_fragment.xyz
 94 104 0 0 0
SMALL
GASTEIGER

@<TRIPOS>ATOM
      1 C           0.5949   30.0206   19.0367 C.ar    1  UNL1       -0.0309
      2 C           0.7960   32.4297   19.0367 C.ar    1  UNL1       -0.0309
      3 C          -1.3909   31.3993   19.0367 C.ar    1  UNL1       -0.0309
      4 C           1.1116   28.9249   18.3445 C.ar    1  UNL1       -0.0491
      5 C           1.4865   33.4250   18.3445 C.ar    1  UNL1       -0.0491
      6 C          -2.5981   31.4997   18.3445 C.ar    1  UNL1       -0.0491
      7 C           1.6312   27.8325   19.0681 C.ar    1  UNL1       -0.0099
      8 C           2.1728   34.4212   19.0681 C.ar    1  UNL1       -0.0099
      9 C          -3.8040   31.5959   19.0681 C.ar    1  UNL1       -0.0099
     10 C           3.2833   26.7645   17.5374 C.ar    1  UNL1       -0.0540
     11 C           2.2717   36.3860   17.5374 C.ar    1  UNL1       -0.0540
     12 C          -5.5549   30.6991   17.5374 C.ar    1  UNL1       -0.0540
     13 C           2.1362   26.6566   18.3351 C.ar    1  UNL1       -0.0173
     14 C           2.9387   35.4465   18.3351 C.ar    1  UNL1       -0.0173
     15 C          -5.0749   31.7465   18.3351 C.ar    1  UNL1       -0.0173
     16 C           1.5567   25.3976   18.5492 C.ar    1  UNL1       -0.0540
     17 C           4.3187   35.5742   18.5492 C.ar    1  UNL1       -0.0540
     18 C          -5.8754   32.8779   18.5492 C.ar    1  UNL1       -0.0540
     19 C           2.1647   24.2489   18.0406 C.ar    1  UNL1       -0.0612
     20 C           5.0096   36.6750   18.0406 C.ar    1  UNL1       -0.0612
     21 C          -7.1742   32.9257   18.0406 C.ar    1  UNL1       -0.0612
     22 C           3.3662   24.3441   17.3243 C.ar    1  UNL1       -0.0617
     23 C           4.3263   37.6679   17.3243 C.ar    1  UNL1       -0.0617
     24 C          -7.6925   31.8375   17.3243 C.ar    1  UNL1       -0.0617
     25 C           3.9021   25.6139   17.0426 C.ar    1  UNL1       -0.0612
     26 C           2.9587   37.4971   17.0426 C.ar    1  UNL1       -0.0612
     27 C          -6.8608   30.7386   17.0426 C.ar    1  UNL1       -0.0612
     28 C           2.2939   26.7992   21.3012 C.ar    1  UNL1       -0.0173
     29 C           2.7363   35.5118   21.3012 C.ar    1  UNL1       -0.0173
     30 C          -5.0302   31.5386   21.3012 C.ar    1  UNL1       -0.0173
     31 C           1.6545   27.8644   20.4927 C.ar    1  UNL1       -0.0099
     32 C           2.1335   34.4254   20.4927 C.ar    1  UNL1       -0.0099
     33 C          -3.7880   31.5598   20.4927 C.ar    1  UNL1       -0.0099
     34 C           1.1148   28.9662   21.1741 C.ar    1  UNL1       -0.0491
     35 C           1.4491   33.4072   21.1741 C.ar    1  UNL1       -0.0491
     36 C          -2.5640   31.4762   21.1741 C.ar    1  UNL1       -0.0491
     37 C           0.5909   30.0295   20.4548 C.ar    1  UNL1       -0.0309
     38 C           0.7903   32.4218   20.4548 C.ar    1  UNL1       -0.0309
     39 C          -1.3812   31.3983   20.4548 C.ar    1  UNL1       -0.0309
     40 C           1.5873   26.1995   22.3543 C.ar    1  UNL1       -0.0540
     41 C           3.6089   35.1997   22.3543 C.ar    1  UNL1       -0.0540
     42 C          -5.1963   32.4504   22.3543 C.ar    1  UNL1       -0.0540
     43 C           2.2216   25.2906   23.2031 C.ar    1  UNL1       -0.0612
     44 C           4.0790   36.2034   23.2031 C.ar    1  UNL1       -0.0612
     45 C          -6.3005   32.3556   23.2031 C.ar    1  UNL1       -0.0612
     46 C           3.5762   24.9649   23.0121 C.ar    1  UNL1       -0.0617
     47 C           3.6837   37.5394   23.0121 C.ar    1  UNL1       -0.0617
     48 C          -7.2599   31.3453   23.0121 C.ar    1  UNL1       -0.0617
     49 C           3.6390   26.4524   21.0916 C.ar    1  UNL1       -0.0540
     50 C           2.3641   36.8501   21.0916 C.ar    1  UNL1       -0.0540
     51 C          -6.0031   30.5471   21.0916 C.ar    1  UNL1       -0.0540
     52 C           4.2708   25.5337   21.9340 C.ar    1  UNL1       -0.0612
     53 C           2.8439   37.8566   21.9340 C.ar    1  UNL1       -0.0612
     54 C          -7.1146   30.4594   21.9340 C.ar    1  UNL1       -0.0612
     55 C          -0.0000   31.2832   18.4055 C.3     1  UNL1        0.0351
     56 C          -0.0000   31.2832   21.0770 C.3     1  UNL1        0.0351
     57 H           1.0991   28.9146   17.2615 H       1  UNL1        0.0627
     58 H           1.5017   33.4194   17.2615 H       1  UNL1        0.0627
     59 H          -2.6008   31.5156   17.2615 H       1  UNL1        0.0627
     60 H           3.7417   27.7311   17.3656 H       1  UNL1        0.0624
     61 H           1.2053   36.2996   17.3656 H       1  UNL1        0.0624
     62 H          -4.9470   29.8188   17.3656 H       1  UNL1        0.0624
     63 H           0.6673   25.3014   19.1604 H       1  UNL1        0.0624
     64 H           4.8468   34.8520   19.1604 H       1  UNL1        0.0624
     65 H          -5.5141   33.6962   19.1604 H       1  UNL1        0.0624
     66 H           1.7333   23.2813   18.2664 H       1  UNL1        0.0618
     67 H           6.0632   36.7853   18.2664 H       1  UNL1        0.0618
     68 H          -7.7965   33.7831   18.2664 H       1  UNL1        0.0618
     69 H           4.8240   25.7148   16.4834 H       1  UNL1        0.0618
     70 H           2.4104   38.2451   16.4834 H       1  UNL1        0.0618
     71 H          -7.2344   29.8897   16.4834 H       1  UNL1        0.0618
     72 H           1.1308   29.0108   22.2566 H       1  UNL1        0.0627
     73 H           1.4026   33.3987   22.2566 H       1  UNL1        0.0627
     74 H          -2.5334   31.4401   22.2566 H       1  UNL1        0.0627
     75 H           0.5497   26.4539   22.5329 H       1  UNL1        0.0624
     76 H           3.9075   34.1739   22.5329 H       1  UNL1        0.0624
     77 H          -4.4572   33.2218   22.5329 H       1  UNL1        0.0624
     78 H           1.6572   24.8612   24.0214 H       1  UNL1        0.0618
     79 H           4.7330   35.9294   24.0214 H       1  UNL1        0.0618
     80 H          -6.3902   33.0590   24.0214 H       1  UNL1        0.0618
     81 H           4.2112   26.9236   20.3027 H       1  UNL1        0.0624
     82 H           1.6700   37.1100   20.3027 H       1  UNL1        0.0624
     83 H          -5.8811   29.8160   20.3027 H       1  UNL1        0.0624
     84 H           5.3163   25.3005   21.7696 H       1  UNL1        0.0618
     85 H           2.5231   38.8786   21.7696 H       1  UNL1        0.0618
     86 H          -7.8394   29.6706   21.7696 H       1  UNL1        0.0618
     87 H          -0.0000   31.2832   17.2941 H       1  UNL1        0.0446
     88 H          -0.0001   31.2832   22.1471 H       1  UNL1        0.0446
     89 H           3.8527   23.4911   17.0070 H       1  UNL1        0.0618
     90 H           4.8218   38.5158   17.0070 H       1  UNL1        0.0618
     91 H          -8.6745   31.8427   17.0070 H       1  UNL1        0.0618
     92 H           4.0533   24.3157   23.6569 H       1  UNL1        0.0618
     93 H           4.0074   38.2773   23.6569 H       1  UNL1        0.0618
     94 H          -8.0607   31.2567   23.6569 H       1  UNL1        0.0618
@<TRIPOS>BOND
     1    69    25    1
     2    70    26    1
     3    71    27    1
     4    90    23    1
     5    89    22    1
     6    91    24    1
     7    26    23   ar
     8    26    11   ar
     9    27    24   ar
    10    27    12   ar
    11    25    22   ar
    12    25    10   ar
    13    58     5    1
    14    57     4    1
    15    59     6    1
    16    87    55    1
    17    23    20   ar
    18    24    21   ar
    19    22    19   ar
    20    60    10    1
    21    62    12    1
    22    61    11    1
    23    10    13   ar
    24    11    14   ar
    25    12    15   ar
    26    21    68    1
    27    21    18   ar
    28    19    66    1
    29    19    16   ar
    30    20    67    1
    31    20    17   ar
    32    14    17   ar
    33    14     8    1
    34    15    18   ar
    35    15     9    1
    36    13    16   ar
    37    13     7    1
    38     4     1   ar
    39     4     7   ar
    40     5     2   ar
    41     5     8   ar
    42     6     3   ar
    43     6     9   ar
    44    55     2    1
    45    55     3    1
    46    55     1    1
    47    16    63    1
    48    17    64    1
    49    18    65    1
    50     2    38   ar
    51     3    39   ar
    52     1    37   ar
    53     8    32   ar
    54     9    33   ar
    55     7    31   ar
    56    81    49    1
    57    82    50    1
    58    83    51    1
    59    37    56    1
    60    37    34   ar
    61    38    56    1
    62    38    35   ar
    63    39    56    1
    64    39    36   ar
    65    33    36   ar
    66    33    30    1
    67    32    35   ar
    68    32    29    1
    69    31    34   ar
    70    31    28    1
    71    56    88    1
    72    51    30   ar
    73    51    54   ar
    74    50    29   ar
    75    50    53   ar
    76    49    28   ar
    77    49    52   ar
    78    36    74    1
    79    35    73    1
    80    34    72    1
    81    28    40   ar
    82    30    42   ar
    83    29    41   ar
    84    86    54    1
    85    85    53    1
    86    84    52    1
    87    54    48   ar
    88    52    46   ar
    89    53    47   ar
    90    40    75    1
    91    40    43   ar
    92    41    76    1
    93    41    44   ar
    94    42    77    1
    95    42    45   ar
    96    48    45   ar
    97    48    94    1
    98    46    43   ar
    99    46    92    1
   100    47    44   ar
   101    47    93    1
   102    43    78    1
   103    44    79    1
   104    45    80    1
