@<TRIPOS>MOLECULE
*****
 137 148 0 0 0
SMALL
GASTEIGER

@<TRIPOS>ATOM
      1 C          21.5371   16.2257   31.5540 C.ar    1  UNL1       -0.0612
      2 C           2.2717    5.1027   33.9012 C.ar    1  UNL1       -0.0612
      3 C          22.0172   15.1783   30.7563 C.ar    1  UNL1       -0.0617
      4 C           2.9387    4.1633   34.6989 C.ar    1  UNL1       -0.0617
      5 C          21.2166   14.0469   30.5422 C.ar    1  UNL1       -0.0612
      6 C           4.3188    4.2909   34.9130 C.ar    1  UNL1       -0.0612
      7 C          19.9178   13.9991   31.0508 C.ar    1  UNL1       -0.0531
      8 C           5.0096    5.3918   34.4044 C.ar    1  UNL1       -0.0531
      9 C          19.3995   15.0873   31.7670 C.ar    1  UNL1       -0.0069
     10 C           4.3264    6.3847   33.6881 C.ar    1  UNL1       -0.0069
     11 C          20.2313   16.1862   32.0488 C.ar    1  UNL1       -0.0531
     12 C           2.9588    6.2139   33.4064 C.ar    1  UNL1       -0.0531
     13 C          17.9637   15.1089   32.0955 C.2     1  UNL1        0.0354
     14 C           5.0256    7.6390   33.3597 C.2     1  UNL1        0.0354
     15 C          15.5373   17.6212   33.1686 C.ar    1  UNL1       -0.0005
     16 C           4.0630   10.9965   32.2866 C.ar    1  UNL1       -0.0005
     17 C          15.9694   16.4345   32.5662 C.ar    1  UNL1        0.0666
     18 C           4.8747   10.0289   32.8889 C.ar    1  UNL1        0.0666
     19 C          15.0136   15.5551   32.0218 C.ar    1  UNL1       -0.0356
     20 C           6.1142   10.4170   33.4334 C.ar    1  UNL1       -0.0356
     21 C          13.6541   15.8667   32.0837 C.ar    1  UNL1       -0.0493
     22 C           6.5241   11.7501   33.3715 C.ar    1  UNL1       -0.0493
     23 C          13.2223   17.0614   32.6806 C.ar    1  UNL1        0.0175
     24 C           5.7053   12.7215   32.7745 C.ar    1  UNL1        0.0175
     25 C          14.1767   17.9356   33.2329 C.ar    1  UNL1        0.1331
     26 C           4.4710   12.3320   32.2223 C.ar    1  UNL1        0.1331
     27 C           9.0263   18.0693   32.7126 C.ar    1  UNL1       -0.0282
     28 C           6.9304   16.8593   32.7426 C.ar    1  UNL1       -0.0282
     29 C           7.8261   19.9388   30.7401 C.ar    1  UNL1       -0.0565
     30 C           5.9115   18.8334   34.7151 C.ar    1  UNL1       -0.0565
     31 C           6.9849   19.1115   31.5177 C.ar    1  UNL1       -0.0282
     32 C           7.0486   19.1483   33.9375 C.ar    1  UNL1       -0.0282
     33 C           5.5972   19.1603   31.2634 C.ar    1  UNL1       -0.0565
     34 C           7.7001   20.3744   34.1918 C.ar    1  UNL1       -0.0565
     35 C           5.0825   19.9168   30.2118 C.ar    1  UNL1       -0.0536
     36 C           7.3024   21.1984   35.2434 C.ar    1  UNL1       -0.0536
     37 C           5.9326   20.6910   29.4102 C.ar    1  UNL1       -0.0151
     38 C           6.2068   20.8493   36.0450 C.ar    1  UNL1       -0.0151
     39 C           7.3081   20.6990   29.6875 C.ar    1  UNL1       -0.0536
     40 C           5.5122   19.6621   35.7677 C.ar    1  UNL1       -0.0536
     41 C           4.2396   22.2945   28.4740 C.ar    1  UNL1        0.1331
     42 C           5.6647   23.1172   36.9812 C.ar    1  UNL1        0.1331
     43 C           5.3835   21.4949   28.2933 C.ar    1  UNL1        0.0175
     44 C           5.7853   21.7268   37.1619 C.ar    1  UNL1        0.0175
     45 C           5.9941   21.4536   27.0283 C.ar    1  UNL1       -0.0493
     46 C           5.5157   21.1773   38.4269 C.ar    1  UNL1       -0.0493
     47 C           5.4696   22.1893   25.9610 C.ar    1  UNL1       -0.0356
     48 C           5.1407   21.9994   39.4942 C.ar    1  UNL1       -0.0356
     49 C           4.3263   22.9889   26.1466 C.ar    1  UNL1        0.0666
     50 C           5.0199   23.3893   39.3086 C.ar    1  UNL1        0.0666
     51 C           3.7168   23.0246   27.4053 C.ar    1  UNL1       -0.0005
     52 C           5.2938   23.9351   38.0499 C.ar    1  UNL1       -0.0005
     53 C           4.2906   24.0898   23.9610 C.2     1  UNL1        0.0354
     54 C           4.0844   23.9707   41.4942 C.2     1  UNL1        0.0354
     55 C           2.2939   26.7992   21.3013 C.ar    1  UNL1       -0.0617
     56 C           2.7363   27.0546   44.1539 C.ar    1  UNL1       -0.0617
     57 C           1.5873   26.1995   22.3543 C.ar    1  UNL1       -0.0612
     58 C           3.6090   27.3667   43.1009 C.ar    1  UNL1       -0.0612
     59 C           2.2216   25.2906   23.2031 C.ar    1  UNL1       -0.0531
     60 C           4.0790   26.3630   42.2521 C.ar    1  UNL1       -0.0531
     61 C           3.5762   24.9649   23.0121 C.ar    1  UNL1       -0.0069
     62 C           3.6837   25.0270   42.4431 C.ar    1  UNL1       -0.0069
     63 C           3.6390   26.4524   21.0916 C.ar    1  UNL1       -0.0612
     64 C           2.3641   25.7163   44.3636 C.ar    1  UNL1       -0.0612
     65 C           4.2708   25.5337   21.9340 C.ar    1  UNL1       -0.0531
     66 C           2.8439   24.7098   43.5211 C.ar    1  UNL1       -0.0531
     67 C           9.6472   17.5672   31.5481 C.ar    1  UNL1       -0.0565
     68 C           7.0548   16.0705   33.9071 C.ar    1  UNL1       -0.0565
     69 C          11.0072   17.2566   31.5344 C.ar    1  UNL1       -0.0536
     70 C           6.6438   14.7373   33.9208 C.ar    1  UNL1       -0.0536
     71 C          11.7818   17.3997   32.6949 C.ar    1  UNL1       -0.0151
     72 C           6.1326   14.1381   32.7603 C.ar    1  UNL1       -0.0151
     73 C          11.1649   17.8338   33.8750 C.ar    1  UNL1       -0.0536
     74 C           6.0651   14.8894   31.5802 C.ar    1  UNL1       -0.0536
     75 C           9.8049   18.1444   33.8907 C.ar    1  UNL1       -0.0565
     76 C           6.4761   16.2225   31.5644 C.ar    1  UNL1       -0.0565
     77 C           7.4973   18.2974   32.7276 C.3     1  UNL1        0.0704
     78 N          17.3820   16.2252   32.4165 N.2     1  UNL1       -0.2549
     79 N           4.3497    8.7009   33.0387 N.2     1  UNL1       -0.2549
     80 N           3.7409   23.7721   25.0945 N.2     1  UNL1       -0.2549
     81 N           4.6344   24.2879   40.3606 N.2     1  UNL1       -0.2549
     82 F          13.8018   19.1190   33.7813 F       1  UNL1       -0.2048
     83 F           3.6336   13.2484   31.6739 F       1  UNL1       -0.2048
     84 F           5.8714   23.6830   35.7646 F       1  UNL1       -0.2048
     85 F           3.6464   22.3983   29.6906 F       1  UNL1       -0.2048
     86 H          22.1450   17.1060   31.7258 H       1  UNL1        0.0618
     87 H           1.2053    5.0164   33.7294 H       1  UNL1        0.0618
     88 H          21.5780   13.2286   29.9310 H       1  UNL1        0.0618
     89 H           4.8468    3.5688   35.5242 H       1  UNL1        0.0618
     90 H          19.2955   13.1418   30.8250 H       1  UNL1        0.0624
     91 H           6.0632    5.5021   34.6302 H       1  UNL1        0.0624
     92 H          19.8577   17.0351   32.6080 H       1  UNL1        0.0624
     93 H           2.4104    6.9619   32.8472 H       1  UNL1        0.0624
     94 H          17.3917   14.2009   31.9600 H       1  UNL1        0.0836
     95 H           6.0979    7.6803   33.4952 H       1  UNL1        0.0836
     96 H          16.2636   18.3190   33.5667 H       1  UNL1        0.0668
     97 H           3.0956   10.7164   31.8884 H       1  UNL1        0.0668
     98 H          15.3021   14.6490   31.5098 H       1  UNL1        0.0639
     99 H           6.7546    9.7141   33.9454 H       1  UNL1        0.0639
    100 H          12.9381   15.1764   31.6541 H       1  UNL1        0.0625
    101 H           7.4799   12.0251   33.8010 H       1  UNL1        0.0625
    102 H           8.8816   20.0270   30.9536 H       1  UNL1        0.0621
    103 H           5.3074   17.9634   34.5016 H       1  UNL1        0.0621
    104 H           4.9074   18.5935   31.8760 H       1  UNL1        0.0621
    105 H           8.5359   20.6884   33.5792 H       1  UNL1        0.0621
    106 H           4.0172   19.8886   30.0199 H       1  UNL1        0.0624
    107 H           7.8594   22.1069   35.4353 H       1  UNL1        0.0624
    108 H           7.9800   21.3184   29.1058 H       1  UNL1        0.0624
    109 H           4.6398   19.3899   36.3494 H       1  UNL1        0.0624
    110 H           6.8659   20.8323   26.8604 H       1  UNL1        0.0625
    111 H           5.6178   20.1116   38.5948 H       1  UNL1        0.0625
    112 H           5.9513   22.1077   24.9973 H       1  UNL1        0.0639
    113 H           4.9706   21.5414   40.4578 H       1  UNL1        0.0639
    114 H           2.8373   23.6384   27.5604 H       1  UNL1        0.0668
    115 H           5.2020   25.0036   37.8948 H       1  UNL1        0.0668
    116 H           5.3071   23.7979   23.7332 H       1  UNL1        0.0836
    117 H           3.8289   22.9445   41.7220 H       1  UNL1        0.0836
    118 H           0.5497   26.4539   22.5330 H       1  UNL1        0.0618
    119 H           3.9075   28.3925   42.9222 H       1  UNL1        0.0618
    120 H           1.6572   24.8612   24.0214 H       1  UNL1        0.0624
    121 H           4.7330   26.6370   41.4338 H       1  UNL1        0.0624
    122 H           4.2112   26.9236   20.3027 H       1  UNL1        0.0618
    123 H           1.6700   25.4564   45.1525 H       1  UNL1        0.0618
    124 H           5.3163   25.3005   21.7696 H       1  UNL1        0.0624
    125 H           2.5231   23.6878   43.6856 H       1  UNL1        0.0624
    126 H           9.0731   17.4138   30.6428 H       1  UNL1        0.0621
    127 H           7.4747   16.4909   34.8123 H       1  UNL1        0.0621
    128 H          11.4561   16.9042   30.6134 H       1  UNL1        0.0624
    129 H           6.7245   14.1724   34.8418 H       1  UNL1        0.0624
    130 H          11.7295   17.8985   34.7975 H       1  UNL1        0.0624
    131 H           5.7268   14.4328   30.6577 H       1  UNL1        0.0624
    132 H           9.3649   18.4072   34.8426 H       1  UNL1        0.0621
    133 H           6.4685   16.7349   30.6126 H       1  UNL1        0.0621
    134 H          22.9545   15.2392   30.3287 H       1  UNL1        0.0618
    135 H           2.4173    3.3820   35.1264 H       1  UNL1        0.0618
    136 H           1.8307   27.4875   20.6874 H       1  UNL1        0.0618
    137 H           2.3718   27.7999   44.7678 H       1  UNL1        0.0618
@<TRIPOS>BOND
     1   122    63    1
     2   136    55    1
     3    63    55   ar
     4    63    65   ar
     5    55    57   ar
     6   124    65    1
     7    65    61   ar
     8    57   118    1
     9    57    59   ar
    10    61    59   ar
    11    61    53    1
    12    59   120    1
    13   116    53    1
    14    53    80    2
    15   112    47    1
    16    80    49    1
    17    47    49   ar
    18    47    45   ar
    19    49    51   ar
    20   110    45    1
    21    45    43   ar
    22    51   114    1
    23    51    41   ar
    24    43    41   ar
    25    43    37    1
    26    41    85    1
    27   108    39    1
    28    37    39   ar
    29    37    35   ar
    30    39    29   ar
    31    88     5    1
    32   106    35    1
    33    35    33   ar
    34   134     3    1
    35     5     3   ar
    36     5     7   ar
    37   133    76    1
    38   128    69    1
    39   126    67    1
    40   131    74    1
    41    29   102    1
    42    29    31   ar
    43     3     1   ar
    44    90     7    1
    45     7     9   ar
    46    33    31   ar
    47    33   104    1
    48    98    19    1
    49    31    77    1
    50    69    67   ar
    51    69    71   ar
    52    67    27   ar
    53     1    86    1
    54     1    11   ar
    55    76    74   ar
    56    76    28   ar
    57    74    72   ar
    58   100    21    1
    59    83    26    1
    60     9    11   ar
    61     9    13    1
    62    97    16    1
    63    94    13    1
    64    19    21   ar
    65    19    17   ar
    66    11    92    1
    67    21    23   ar
    68    13    78    2
    69    26    16   ar
    70    26    24   ar
    71    16    18   ar
    72    78    17    1
    73    17    15   ar
    74    23    71    1
    75    23    25   ar
    76    71    73   ar
    77    27    77    1
    78    27    75   ar
    79    77    28    1
    80    77    32    1
    81    28    68   ar
    82    72    24    1
    83    72    70   ar
    84    24    22   ar
    85    93    12    1
    86    18    79    1
    87    18    20   ar
    88    79    14    2
    89    15    25   ar
    90    15    96    1
    91    25    82    1
    92    14    95    1
    93    14    10    1
    94    22    20   ar
    95    22   101    1
    96    12    10   ar
    97    12     2   ar
    98    20    99    1
    99   105    34    1
   100    10     8   ar
   101    87     2    1
   102    73    75   ar
   103    73   130    1
   104    75   132    1
   105     2     4   ar
   106    68    70   ar
   107    68   127    1
   108    70   129    1
   109    32    34   ar
   110    32    30   ar
   111    34    36   ar
   112     8    91    1
   113     8     6   ar
   114   103    30    1
   115     4     6   ar
   116     4   135    1
   117    30    40   ar
   118     6    89    1
   119    36   107    1
   120    36    38   ar
   121    84    42    1
   122    40    38   ar
   123    40   109    1
   124    38    44    1
   125    42    44   ar
   126    42    52   ar
   127    44    46   ar
   128   115    52    1
   129    52    50   ar
   130    46   111    1
   131    46    48   ar
   132    50    48   ar
   133    50    81    1
   134    48   113    1
   135    81    54    2
   136   121    60    1
   137    54   117    1
   138    54    62    1
   139    60    62   ar
   140    60    58   ar
   141    62    66   ar
   142   119    58    1
   143    58    56   ar
   144    66   125    1
   145    66    64   ar
   146    56    64   ar
   147    56   137    1
   148    64   123    1
