@<TRIPOS>MOLECULE
*****
 172 188 0 0 0
SMALL
GASTEIGER

@<TRIPOS>ATOM
      1 C           0.5949   30.0206   19.0367 C.ar    1  UNL1       -0.0309
      2 C           0.7960   32.4297   19.0367 C.ar    1  UNL1       -0.0309
      3 C          -1.3909   31.3993   19.0367 C.ar    1  UNL1       -0.0309
      4 C           1.1116   28.9249   18.3445 C.ar    1  UNL1       -0.0491
      5 C           1.4865   33.4250   18.3445 C.ar    1  UNL1       -0.0491
      6 C          -2.5981   31.4997   18.3445 C.ar    1  UNL1       -0.0491
      7 C           1.6312   27.8325   19.0681 C.ar    1  UNL1       -0.0099
      8 C           2.1728   34.4212   19.0681 C.ar    1  UNL1       -0.0099
      9 C          -3.8040   31.5959   19.0681 C.ar    1  UNL1       -0.0099
     10 C           3.2833   26.7645   17.5374 C.ar    1  UNL1       -0.0534
     11 C           2.2717   36.3860   17.5374 C.ar    1  UNL1       -0.0534
     12 C          -5.5549   30.6991   17.5374 C.ar    1  UNL1       -0.0534
     13 C           2.1362   26.6566   18.3351 C.ar    1  UNL1       -0.0173
     14 C           2.9387   35.4465   18.3351 C.ar    1  UNL1       -0.0173
     15 C          -5.0749   31.7465   18.3351 C.ar    1  UNL1       -0.0173
     16 C           1.5567   25.3976   18.5492 C.ar    1  UNL1       -0.0534
     17 C           4.3187   35.5742   18.5492 C.ar    1  UNL1       -0.0534
     18 C          -5.8754   32.8779   18.5492 C.ar    1  UNL1       -0.0534
     19 C           2.1647   24.2489   18.0406 C.ar    1  UNL1       -0.0526
     20 C           5.0096   36.6750   18.0406 C.ar    1  UNL1       -0.0526
     21 C          -7.1742   32.9257   18.0406 C.ar    1  UNL1       -0.0526
     22 C           3.3662   24.3441   17.3243 C.ar    1  UNL1       -0.0069
     23 C           4.3263   37.6679   17.3243 C.ar    1  UNL1       -0.0069
     24 C          -7.6925   31.8375   17.3243 C.ar    1  UNL1       -0.0069
     25 C           3.9021   25.6139   17.0426 C.ar    1  UNL1       -0.0526
     26 C           2.9587   37.4971   17.0426 C.ar    1  UNL1       -0.0526
     27 C          -6.8608   30.7386   17.0426 C.ar    1  UNL1       -0.0526
     28 C           4.1028   23.1114   16.9959 C.2     1  UNL1        0.0354
     29 C           5.0256   38.9222   16.9959 C.2     1  UNL1        0.0354
     30 C          -9.1284   31.8160   16.9959 C.2     1  UNL1        0.0354
     31 C           7.4918   22.2663   15.9228 C.ar    1  UNL1       -0.0011
     32 C           4.0630   42.2797   15.9228 C.ar    1  UNL1       -0.0011
     33 C         -11.5548   29.3036   15.9228 C.ar    1  UNL1       -0.0011
     34 C           6.2480   22.0471   16.5252 C.ar    1  UNL1        0.0666
     35 C           4.8747   41.3121   16.5252 C.ar    1  UNL1        0.0666
     36 C         -11.1226   30.4903   16.5252 C.ar    1  UNL1        0.0666
     37 C           5.9643   20.7797   17.0696 C.ar    1  UNL1       -0.0361
     38 C           6.1141   41.7002   17.0696 C.ar    1  UNL1       -0.0361
     39 C         -12.0785   31.3697   17.0696 C.ar    1  UNL1       -0.0361
     40 C           6.9139   19.7582   17.0077 C.ar    1  UNL1       -0.0570
     41 C           6.5240   43.0333   17.0077 C.ar    1  UNL1       -0.0570
     42 C         -13.4379   31.0581   17.0077 C.ar    1  UNL1       -0.0570
     43 C           8.1645   19.9815   16.4108 C.ar    1  UNL1       -0.0263
     44 C           5.7053   44.0047   16.4108 C.ar    1  UNL1       -0.0263
     45 C         -13.8698   29.8634   16.4108 C.ar    1  UNL1       -0.0263
     46 C           8.4443   21.2452   15.8585 C.ar    1  UNL1        0.1254
     47 C           4.4710   43.6152   15.8585 C.ar    1  UNL1        0.1254
     48 C         -12.9153   28.9892   15.8585 C.ar    1  UNL1        0.1254
     49 C           4.2396   22.2945   28.4740 C.ar    1  UNL1        0.1254
     50 C           5.6647   39.4492   28.4740 C.ar    1  UNL1        0.1254
     51 C          -9.9043   32.1060   28.4740 C.ar    1  UNL1        0.1254
     52 C           5.3835   21.4949   28.2933 C.ar    1  UNL1       -0.0263
     53 C           5.7852   40.8396   28.2933 C.ar    1  UNL1       -0.0263
     54 C         -11.1687   31.5152   28.2933 C.ar    1  UNL1       -0.0263
     55 C           5.9941   21.4536   27.0283 C.ar    1  UNL1       -0.0570
     56 C           5.5157   41.3891   27.0283 C.ar    1  UNL1       -0.0570
     57 C         -11.5098   31.0070   27.0283 C.ar    1  UNL1       -0.0570
     58 C           5.4696   22.1893   25.9610 C.ar    1  UNL1       -0.0361
     59 C           5.1407   40.5670   25.9610 C.ar    1  UNL1       -0.0361
     60 C         -10.6103   31.0933   25.9610 C.ar    1  UNL1       -0.0361
     61 C           4.3263   22.9889   26.1466 C.ar    1  UNL1        0.0666
     62 C           5.0199   39.1771   26.1466 C.ar    1  UNL1        0.0666
     63 C          -9.3462   31.6836   26.1466 C.ar    1  UNL1        0.0666
     64 C           3.7168   23.0246   27.4053 C.ar    1  UNL1       -0.0011
     65 C           5.2938   38.6313   27.4053 C.ar    1  UNL1       -0.0011
     66 C          -9.0106   32.1937   27.4053 C.ar    1  UNL1       -0.0011
     67 C           4.2906   24.0898   23.9610 C.2     1  UNL1        0.0354
     68 C           4.0844   38.5956   23.9610 C.2     1  UNL1        0.0354
     69 C          -8.3750   31.1642   23.9610 C.2     1  UNL1        0.0354
     70 C           2.2939   26.7992   21.3013 C.ar    1  UNL1       -0.0173
     71 C           2.7363   35.5118   21.3013 C.ar    1  UNL1       -0.0173
     72 C          -5.0302   31.5386   21.3013 C.ar    1  UNL1       -0.0173
     73 C           1.6545   27.8644   20.4927 C.ar    1  UNL1       -0.0099
     74 C           2.1335   34.4254   20.4927 C.ar    1  UNL1       -0.0099
     75 C          -3.7880   31.5598   20.4927 C.ar    1  UNL1       -0.0099
     76 C           1.1148   28.9662   21.1741 C.ar    1  UNL1       -0.0491
     77 C           1.4491   33.4072   21.1741 C.ar    1  UNL1       -0.0491
     78 C          -2.5640   31.4762   21.1741 C.ar    1  UNL1       -0.0491
     79 C           0.5909   30.0295   20.4548 C.ar    1  UNL1       -0.0309
     80 C           0.7903   32.4218   20.4548 C.ar    1  UNL1       -0.0309
     81 C          -1.3812   31.3983   20.4548 C.ar    1  UNL1       -0.0309
     82 C           1.5873   26.1995   22.3543 C.ar    1  UNL1       -0.0534
     83 C           3.6089   35.1997   22.3543 C.ar    1  UNL1       -0.0534
     84 C          -5.1963   32.4504   22.3543 C.ar    1  UNL1       -0.0534
     85 C           2.2216   25.2906   23.2031 C.ar    1  UNL1       -0.0526
     86 C           4.0790   36.2034   23.2031 C.ar    1  UNL1       -0.0526
     87 C          -6.3005   32.3556   23.2031 C.ar    1  UNL1       -0.0526
     88 C           3.5762   24.9649   23.0121 C.ar    1  UNL1       -0.0069
     89 C           3.6837   37.5394   23.0121 C.ar    1  UNL1       -0.0069
     90 C          -7.2599   31.3453   23.0121 C.ar    1  UNL1       -0.0069
     91 C           3.6390   26.4524   21.0916 C.ar    1  UNL1       -0.0534
     92 C           2.3641   36.8501   21.0916 C.ar    1  UNL1       -0.0534
     93 C          -6.0031   30.5471   21.0916 C.ar    1  UNL1       -0.0534
     94 C           4.2708   25.5337   21.9340 C.ar    1  UNL1       -0.0526
     95 C           2.8439   37.8566   21.9340 C.ar    1  UNL1       -0.0526
     96 C          -7.1146   30.4594   21.9340 C.ar    1  UNL1       -0.0526
     97 C          -0.0000   31.2832   18.4055 C.3     1  UNL1        0.0351
     98 C          -0.0000   31.2832   21.0771 C.3     1  UNL1        0.0351
     99 N           5.3604   23.1658   16.6749 N.2     1  UNL1       -0.2549
    100 N           4.3496   39.9842   16.6749 N.2     1  UNL1       -0.2549
    101 N          -9.7101   30.6996   16.6749 N.2     1  UNL1       -0.2549
    102 N           3.7409   23.7721   25.0945 N.2     1  UNL1       -0.2549
    103 N           4.6344   38.2784   25.0945 N.2     1  UNL1       -0.2549
    104 N          -8.3752   31.7991   25.0945 N.2     1  UNL1       -0.2549
    105 F           9.6567   21.5122   15.3101 F       1  UNL1       -0.2054
    106 F           3.6336   44.5316   15.3101 F       1  UNL1       -0.2054
    107 F         -13.2903   27.8058   15.3101 F       1  UNL1       -0.2054
    108 F          -9.5177   32.5678   29.6906 F       1  UNL1       -0.2054
    109 F           3.6464   22.3983   29.6906 F       1  UNL1       -0.2054
    110 F           5.8714   38.8835   29.6906 F       1  UNL1       -0.2054
    111 H           1.0991   28.9146   17.2615 H       1  UNL1        0.0627
    112 H           1.5017   33.4194   17.2615 H       1  UNL1        0.0627
    113 H          -2.6008   31.5156   17.2615 H       1  UNL1        0.0627
    114 H           3.7417   27.7312   17.3656 H       1  UNL1        0.0624
    115 H           1.2053   36.2996   17.3656 H       1  UNL1        0.0624
    116 H          -4.9470   29.8188   17.3656 H       1  UNL1        0.0624
    117 H           0.6673   25.3014   19.1604 H       1  UNL1        0.0624
    118 H           4.8468   34.8520   19.1604 H       1  UNL1        0.0624
    119 H          -5.5141   33.6962   19.1604 H       1  UNL1        0.0624
    120 H           1.7333   23.2813   18.2664 H       1  UNL1        0.0624
    121 H           6.0632   36.7853   18.2664 H       1  UNL1        0.0624
    122 H          -7.7965   33.7831   18.2664 H       1  UNL1        0.0624
    123 H           4.8240   25.7148   16.4834 H       1  UNL1        0.0624
    124 H           2.4104   38.2451   16.4834 H       1  UNL1        0.0624
    125 H          -7.2344   29.8897   16.4834 H       1  UNL1        0.0624
    126 H           3.6024   22.1621   17.1314 H       1  UNL1        0.0836
    127 H           6.0979   38.9635   17.1314 H       1  UNL1        0.0836
    128 H          -9.7003   32.7240   17.1314 H       1  UNL1        0.0836
    129 H           7.7329   23.2442   15.5247 H       1  UNL1        0.0667
    130 H           3.0955   41.9996   15.5247 H       1  UNL1        0.0667
    131 H         -10.8284   28.6058   15.5247 H       1  UNL1        0.0667
    132 H           5.0353   20.5765   17.5816 H       1  UNL1        0.0639
    133 H           6.7546   40.9973   17.5816 H       1  UNL1        0.0639
    134 H         -11.7899   32.2758   17.5816 H       1  UNL1        0.0639
    135 H           6.6741   18.7929   17.4373 H       1  UNL1        0.0619
    136 H           7.4798   43.3083   17.4373 H       1  UNL1        0.0619
    137 H         -14.1540   31.7484   17.4373 H       1  UNL1        0.0619
    138 H           6.8659   20.8323   26.8604 H       1  UNL1        0.0619
    139 H           5.6178   42.4547   26.8604 H       1  UNL1        0.0619
    140 H         -12.4838   30.5626   26.8604 H       1  UNL1        0.0619
    141 H           5.9513   22.1077   24.9973 H       1  UNL1        0.0639
    142 H           4.9706   41.0249   24.9973 H       1  UNL1        0.0639
    143 H         -10.9219   30.7170   24.9973 H       1  UNL1        0.0639
    144 H           2.8373   23.6384   27.5604 H       1  UNL1        0.0667
    145 H           5.2019   37.5628   27.5604 H       1  UNL1        0.0667
    146 H          -8.0393   32.6484   27.5604 H       1  UNL1        0.0667
    147 H           5.3071   23.7979   23.7332 H       1  UNL1        0.0836
    148 H           3.8289   39.6219   23.7332 H       1  UNL1        0.0836
    149 H          -9.1360   30.4298   23.7332 H       1  UNL1        0.0836
    150 H           1.1308   29.0108   22.2566 H       1  UNL1        0.0627
    151 H           1.4026   33.3987   22.2566 H       1  UNL1        0.0627
    152 H          -2.5334   31.4401   22.2566 H       1  UNL1        0.0627
    153 H           0.5497   26.4539   22.5330 H       1  UNL1        0.0624
    154 H           3.9075   34.1739   22.5330 H       1  UNL1        0.0624
    155 H          -4.4572   33.2218   22.5330 H       1  UNL1        0.0624
    156 H           1.6572   24.8612   24.0214 H       1  UNL1        0.0624
    157 H           4.7330   35.9294   24.0214 H       1  UNL1        0.0624
    158 H          -6.3902   33.0590   24.0214 H       1  UNL1        0.0624
    159 H           4.2112   26.9236   20.3027 H       1  UNL1        0.0624
    160 H           1.6700   37.1100   20.3027 H       1  UNL1        0.0624
    161 H          -5.8811   29.8160   20.3027 H       1  UNL1        0.0624
    162 H           5.3163   25.3005   21.7696 H       1  UNL1        0.0624
    163 H           2.5231   38.8786   21.7696 H       1  UNL1        0.0624
    164 H          -7.8394   29.6706   21.7696 H       1  UNL1        0.0624
    165 H          -0.0000   31.2832   17.2941 H       1  UNL1        0.0446
    166 H          -0.0000   31.2832   22.1890 H       1  UNL1        0.0446
    167 H           8.8696   19.2287   16.3773 H       1  UNL1        0.0646
    168 H           6.0047   44.9917   16.3773 H       1  UNL1        0.0646
    169 H         -14.8743   29.6292   16.3773 H       1  UNL1        0.0646
    170 H           5.7683   20.9467   29.0785 H       1  UNL1        0.0646
    171 H           6.0675   41.4470   29.0785 H       1  UNL1        0.0646
    172 H         -11.8358   31.4560   29.0785 H       1  UNL1        0.0646
@<TRIPOS>BOND
     1   106    47    1
     2   105    46    1
     3   107    48    1
     4   129    31    1
     5   131    33    1
     6   130    32    1
     7    48    33   ar
     8    48    45   ar
     9    47    32   ar
    10    47    44   ar
    11    46    31   ar
    12    46    43   ar
    13    33    36   ar
    14    32    35   ar
    15    31    34   ar
    16   169    45    1
    17   168    44    1
    18   167    43    1
    19    45    42   ar
    20    44    41   ar
    21    43    40   ar
    22   125    27    1
    23   124    26    1
    24   123    25    1
    25    34    99    1
    26    34    37   ar
    27    35   100    1
    28    35    38   ar
    29    36   101    1
    30    36    39   ar
    31    99    28    2
    32   100    29    2
    33   101    30    2
    34    28   126    1
    35    28    22    1
    36    30   128    1
    37    30    24    1
    38    29   127    1
    39    29    23    1
    40    40    37   ar
    41    40   135    1
    42    42    39   ar
    43    42   137    1
    44    41    38   ar
    45    41   136    1
    46    25    22   ar
    47    25    10   ar
    48    26    23   ar
    49    26    11   ar
    50    27    24   ar
    51    27    12   ar
    52    37   132    1
    53    38   133    1
    54    39   134    1
    55   111     4    1
    56   112     5    1
    57   113     6    1
    58   165    97    1
    59    24    21   ar
    60    22    19   ar
    61    23    20   ar
    62   114    10    1
    63   116    12    1
    64   115    11    1
    65    12    15   ar
    66    11    14   ar
    67    10    13   ar
    68    21   122    1
    69    21    18   ar
    70    20   121    1
    71    20    17   ar
    72    19   120    1
    73    19    16   ar
    74    15    18   ar
    75    15     9    1
    76    13    16   ar
    77    13     7    1
    78    14    17   ar
    79    14     8    1
    80     4     1   ar
    81     4     7   ar
    82     5     2   ar
    83     5     8   ar
    84     6     3   ar
    85     6     9   ar
    86    97     2    1
    87    97     3    1
    88    97     1    1
    89    18   119    1
    90    16   117    1
    91    17   118    1
    92     2    80   ar
    93     3    81   ar
    94     1    79   ar
    95     8    74   ar
    96     9    75   ar
    97     7    73   ar
    98   159    91    1
    99   160    92    1
   100   161    93    1
   101    81    98    1
   102    81    78   ar
   103    80    98    1
   104    80    77   ar
   105    79    98    1
   106    79    76   ar
   107    73    76   ar
   108    73    70    1
   109    75    78   ar
   110    75    72    1
   111    74    77   ar
   112    74    71    1
   113    98   166    1
   114    91    70   ar
   115    91    94   ar
   116    92    71   ar
   117    92    95   ar
   118    93    72   ar
   119    93    96   ar
   120    78   152    1
   121    77   151    1
   122    76   150    1
   123    70    82   ar
   124    71    83   ar
   125    72    84   ar
   126   162    94    1
   127   164    96    1
   128   163    95    1
   129    96    90   ar
   130    94    88   ar
   131    95    89   ar
   132    82   153    1
   133    82    85   ar
   134    84   155    1
   135    84    87   ar
   136    83   154    1
   137    83    86   ar
   138    88    85   ar
   139    88    67    1
   140    89    86   ar
   141    89    68    1
   142    90    87   ar
   143    90    69    1
   144    86   157    1
   145    85   156    1
   146    87   158    1
   147   149    69    1
   148   148    68    1
   149   147    67    1
   150    69   104    2
   151    68   103    2
   152    67   102    2
   153   143    60    1
   154   141    58    1
   155   142    59    1
   156   104    63    1
   157   103    62    1
   158   102    61    1
   159    58    61   ar
   160    58    55   ar
   161    60    63   ar
   162    60    57   ar
   163    59    62   ar
   164    59    56   ar
   165    63    66   ar
   166    62    65   ar
   167    61    64   ar
   168   140    57    1
   169   139    56    1
   170   138    55    1
   171    55    52   ar
   172    57    54   ar
   173    56    53   ar
   174    64   144    1
   175    64    49   ar
   176    65   145    1
   177    65    50   ar
   178    66   146    1
   179    66    51   ar
   180    54    51   ar
   181    54   172    1
   182    52    49   ar
   183    52   170    1
   184    53    50   ar
   185    53   171    1
   186    49   109    1
   187    50   110    1
   188    51   108    1
