#======================================================================

# CRYSTAL DATA

#----------------------------------------------------------------------

data_VESTA_phase_1


_chemical_name_common                  ''
_cell_length_a                         54.13990
_cell_length_b                         54.13990
_cell_length_c                         49.10370
_cell_angle_alpha                      90
_cell_angle_beta                       90
_cell_angle_gamma                      120
_space_group_name_H-M_alt              'P 1'
_space_group_IT_number                 1

loop_
_space_group_symop_operation_xyz
   'x, y, z'

loop_
_atom_site_label
_atom_site_type_symbol
_atom_site_fract_x
_atom_site_fract_y
_atom_site_fract_z
_atom_site_charge
C1   C   0.33085   0.63973   0.38709   -0.06798
C2   C   0.36027   0.69112   0.38709   -0.06797
C3   C   0.30888   0.66915   0.38709   -0.06798
C4   C   0.63973   0.33085   0.61291   -0.06798
C5   C   0.69112   0.36027   0.61291   -0.06798
C6   C   0.66915   0.30888   0.61291   -0.06797
C7   C   0.99752   0.97306   0.72042   -0.06798
C8   C   0.02694   0.02445   0.72042   -0.06797
C9   C   0.97555   0.00248   0.72042   -0.06797
C10   C   0.30640   0.66418   0.94624   -0.06798
C11   C   0.35779   0.69360   0.94624   -0.06798
C12   C   0.33582   0.64221   0.94624   -0.06798
C13   C   0.66418   0.30640   0.05376   -0.06797
C14   C   0.69360   0.35779   0.05376   -0.06798
C15   C   0.64221   0.33582   0.05376   -0.06798
C16   C   0.97306   0.99752   0.27958   -0.06798
C17   C   0.02445   0.02694   0.27958   -0.06797
C18   C   0.00248   0.97555   0.27958   -0.06797
C19   C   0.32869   0.61635   0.37300   -0.09502
C20   C   0.38365   0.71234   0.37300   -0.09502
C21   C   0.28766   0.67131   0.37300   -0.09502
C22   C   0.61635   0.32869   0.62700   -0.09502
C23   C   0.71234   0.38365   0.62700   -0.09502
C24   C   0.67131   0.28766   0.62700   -0.09502
C25   C   0.99536   0.94968   0.70633   -0.09502
C26   C   0.05032   0.04567   0.70633   -0.09502
C27   C   0.95433   0.00464   0.70633   -0.09501
C28   C   0.28302   0.66202   0.96033   -0.09502
C29   C   0.37901   0.71698   0.96033   -0.09502
C30   C   0.33798   0.62099   0.96033   -0.09502
C31   C   0.66202   0.28302   0.03967   -0.09502
C32   C   0.71698   0.37901   0.03967   -0.09502
C33   C   0.62099   0.33798   0.03967   -0.09502
C34   C   0.94968   0.99536   0.29367   -0.09502
C35   C   0.04567   0.05032   0.29367   -0.09502
C36   C   0.00464   0.95433   0.29367   -0.09502
C37   C   0.32664   0.59306   0.38772   -0.02995
C38   C   0.40694   0.73358   0.38772   -0.02995
C39   C   0.26642   0.67336   0.38772   -0.02995
C40   C   0.59306   0.32664   0.61228   -0.02996
C41   C   0.73358   0.40694   0.61228   -0.02995
C42   C   0.67336   0.26642   0.61228   -0.02995
C43   C   0.99331   0.92639   0.72105   -0.02995
C44   C   0.07361   0.06691   0.72105   -0.02995
C45   C   0.93309   0.00669   0.72105   -0.02996
C46   C   0.25973   0.65997   0.94561   -0.02995
C47   C   0.40025   0.74027   0.94561   -0.02995
C48   C   0.34003   0.59975   0.94561   -0.02995
C49   C   0.65997   0.25973   0.05439   -0.02995
C50   C   0.74027   0.40025   0.05439   -0.02995
C51   C   0.59975   0.34003   0.05439   -0.02995
C52   C   0.92639   0.99331   0.27895   -0.02996
C53   C   0.06691   0.07361   0.27895   -0.02995
C54   C   0.00669   0.93309   0.27895   -0.02995
C55   C   0.34559   0.57015   0.35651   -0.14685
C56   C   0.42985   0.77544   0.35651   -0.14685
C57   C   0.22456   0.65441   0.35651   -0.14685
C58   C   0.57015   0.34559   0.64349   -0.14685
C59   C   0.77544   0.42985   0.64349   -0.14685
C60   C   0.65441   0.22456   0.64349   -0.14685
C61   C   0.01226   0.90348   0.68984   -0.14685
C62   C   0.09652   0.10877   0.68984   -0.14685
C63   C   0.89123   0.98774   0.68984   -0.14684
C64   C   0.23682   0.67892   0.97682   -0.14685
C65   C   0.44211   0.76318   0.97682   -0.14685
C66   C   0.32108   0.55789   0.97682   -0.14685
C67   C   0.67892   0.23682   0.02318   -0.14685
C68   C   0.76318   0.44211   0.02318   -0.14685
C69   C   0.55789   0.32108   0.02318   -0.14685
C70   C   0.90348   0.01226   0.31016   -0.14685
C71   C   0.10877   0.09652   0.31016   -0.14685
C72   C   0.98774   0.89123   0.31016   -0.14685
C73   C   0.32333   0.56793   0.37280   -0.00393
C74   C   0.43207   0.75540   0.37280   -0.00393
C75   C   0.24460   0.67667   0.37280   -0.00393
C76   C   0.56793   0.32333   0.62720   -0.00393
C77   C   0.75540   0.43207   0.62720   -0.00393
C78   C   0.67667   0.24460   0.62720   -0.00393
C79   C   0.99000   0.90126   0.70613   -0.00393
C80   C   0.09874   0.08873   0.70613   -0.00392
C81   C   0.91127   0.01000   0.70613   -0.00393
C82   C   0.23460   0.65666   0.96053   -0.00393
C83   C   0.42207   0.76540   0.96053   -0.00393
C84   C   0.34334   0.57793   0.96053   -0.00393
C85   C   0.65666   0.23460   0.03947   -0.00393
C86   C   0.76540   0.42207   0.03947   -0.00393
C87   C   0.57793   0.34334   0.03947   -0.00392
C88   C   0.90126   0.99000   0.29387   -0.00393
C89   C   0.08873   0.09874   0.29387   -0.00392
C90   C   0.01000   0.91127   0.29387   -0.00393
C91   C   0.29918   0.54112   0.37723   -0.15634
C92   C   0.45888   0.75806   0.37723   -0.15634
C93   C   0.24194   0.70082   0.37723   -0.15635
C94   C   0.54112   0.29918   0.62277   -0.15634
C95   C   0.75806   0.45888   0.62277   -0.15634
C96   C   0.70082   0.24194   0.62277   -0.15635
C97   C   0.96585   0.87445   0.71056   -0.15635
C98   C   0.12555   0.09139   0.71056   -0.15636
C99   C   0.90861   0.03415   0.71056   -0.15633
C100   C   0.20779   0.63251   0.95610   -0.15635
C101   C   0.42473   0.79221   0.95610   -0.15634
C102   C   0.36749   0.57527   0.95610   -0.15636
C103   C   0.63251   0.20779   0.04390   -0.15635
C104   C   0.79221   0.42473   0.04390   -0.15634
C105   C   0.57527   0.36749   0.04390   -0.15636
C106   C   0.87445   0.96585   0.28944   -0.15635
C107   C   0.09139   0.12555   0.28944   -0.15636
C108   C   0.03415   0.90861   0.28944   -0.15633
C109   C   0.29802   0.51653   0.36695   0.11502
C110   C   0.48347   0.78149   0.36695   0.11502
C111   C   0.21851   0.70198   0.36695   0.11503
C112   C   0.51653   0.29802   0.63305   0.11502
C113   C   0.78149   0.48347   0.63305   0.11502
C114   C   0.70198   0.21851   0.63305   0.11503
C115   C   0.96469   0.84986   0.70028   0.11502
C116   C   0.15014   0.11482   0.70028   0.11504
C117   C   0.88518   0.03531   0.70028   0.11501
C118   C   0.18320   0.63135   0.96638   0.11502
C119   C   0.44816   0.81680   0.96638   0.11502
C120   C   0.36865   0.55184   0.96638   0.11503
C121   C   0.63135   0.18320   0.03362   0.11503
C122   C   0.81680   0.44816   0.03362   0.11502
C123   C   0.55184   0.36865   0.03362   0.11503
C124   C   0.84986   0.96469   0.29972   0.11503
C125   C   0.11482   0.15014   0.29972   0.11503
C126   C   0.03531   0.88518   0.29972   0.11501
C127   C   0.32124   0.51847   0.35231   -0.09610
C128   C   0.48153   0.80277   0.35231   -0.09609
C129   C   0.19723   0.67876   0.35231   -0.09610
C130   C   0.51847   0.32124   0.64769   -0.09610
C131   C   0.80277   0.48153   0.64769   -0.09609
C132   C   0.67876   0.19723   0.64769   -0.09610
C133   C   0.98791   0.85180   0.68564   -0.09609
C134   C   0.14820   0.13610   0.68564   -0.09611
C135   C   0.86390   0.01209   0.68564   -0.09608
C136   C   0.18514   0.65457   0.98102   -0.09610
C137   C   0.46944   0.81486   0.98102   -0.09609
C138   C   0.34543   0.53056   0.98102   -0.09610
C139   C   0.65457   0.18514   0.01898   -0.09610
C140   C   0.81486   0.46944   0.01898   -0.09609
C141   C   0.53056   0.34543   0.01898   -0.09610
C142   C   0.85180   0.98791   0.31436   -0.09609
C143   C   0.13610   0.14820   0.31436   -0.09611
C144   C   0.01209   0.86390   0.31436   -0.09608
C145   C   0.34466   0.54555   0.34648   -0.05782
C146   C   0.45445   0.79911   0.34648   -0.05783
C147   C   0.20089   0.65534   0.34648   -0.05782
C148   C   0.54555   0.34466   0.65352   -0.05782
C149   C   0.79911   0.45445   0.65352   -0.05783
C150   C   0.65534   0.20089   0.65352   -0.05782
C151   C   0.01133   0.87888   0.67981   -0.05782
C152   C   0.12112   0.13244   0.67981   -0.05782
C153   C   0.86756   0.98867   0.67981   -0.05783
C154   C   0.21222   0.67799   0.98685   -0.05782
C155   C   0.46578   0.78778   0.98685   -0.05783
C156   C   0.32201   0.53422   0.98685   -0.05782
C157   C   0.67799   0.21222   0.01315   -0.05782
C158   C   0.78778   0.46578   0.01315   -0.05782
C159   C   0.53422   0.32201   0.01315   -0.05782
C160   C   0.87888   0.01133   0.32019   -0.05782
C161   C   0.13244   0.12112   0.32019   -0.05782
C162   C   0.98867   0.86756   0.32019   -0.05783
C163   C   0.32188   0.49226   0.34554   0.00735
C164   C   0.50774   0.82962   0.34554   0.00735
C165   C   0.17038   0.67812   0.34554   0.00736
C166   C   0.49226   0.32188   0.65446   0.00736
C167   C   0.82962   0.50774   0.65446   0.00735
C168   C   0.67812   0.17038   0.65446   0.00735
C169   C   0.98855   0.82559   0.67887   0.00735
C170   C   0.17441   0.16295   0.67887   0.00735
C171   C   0.83705   0.01145   0.67887   0.00736
C172   C   0.15893   0.65521   0.98779   0.00736
C173   C   0.49629   0.84107   0.98779   0.00735
C174   C   0.34479   0.50371   0.98779   0.00735
C175   C   0.65521   0.15893   0.01221   0.00736
C176   C   0.84107   0.49629   0.01221   0.00735
C177   C   0.50371   0.34479   0.01221   0.00735
C178   C   0.82559   0.98855   0.32113   0.00735
C179   C   0.16295   0.17441   0.32113   0.00736
C180   C   0.01145   0.83705   0.32113   0.00735
C181   C   0.37592   0.47461   0.32438   -0.13525
C182   C   0.52539   0.90131   0.32438   -0.13525
C183   C   0.09869   0.62408   0.32438   -0.13525
C184   C   0.47461   0.37592   0.67562   -0.13525
C185   C   0.90131   0.52539   0.67562   -0.13525
C186   C   0.62408   0.09869   0.67562   -0.13525
C187   C   0.04259   0.80794   0.65771   -0.13525
C188   C   0.19206   0.23464   0.65771   -0.13524
C189   C   0.76536   0.95741   0.65771   -0.13525
C190   C   0.14128   0.70925   0.00895   -0.13525
C191   C   0.56798   0.85872   0.00895   -0.13525
C192   C   0.29075   0.43202   0.00895   -0.13524
C193   C   0.70925   0.14128   0.99105   -0.13525
C194   C   0.85872   0.56798   0.99105   -0.13525
C195   C   0.43202   0.29075   0.99105   -0.13525
C196   C   0.80794   0.04259   0.34229   -0.13525
C197   C   0.23464   0.19206   0.34229   -0.13525
C198   C   0.95741   0.76536   0.34229   -0.13525
C199   C   0.35043   0.46978   0.33637   0.02576
C200   C   0.53022   0.88065   0.33637   0.02576
C201   C   0.11935   0.64957   0.33637   0.02577
C202   C   0.46978   0.35043   0.66363   0.02577
C203   C   0.88065   0.53022   0.66363   0.02576
C204   C   0.64957   0.11935   0.66363   0.02576
C205   C   0.01710   0.80311   0.66970   0.02577
C206   C   0.19689   0.21398   0.66970   0.02576
C207   C   0.78602   0.98290   0.66970   0.02577
C208   C   0.13645   0.68376   0.99696   0.02577
C209   C   0.54732   0.86355   0.99696   0.02577
C210   C   0.31624   0.45268   0.99696   0.02576
C211   C   0.68376   0.13645   0.00304   0.02577
C212   C   0.86355   0.54732   0.00304   0.02576
C213   C   0.45268   0.31624   0.00304   0.02577
C214   C   0.80311   0.01710   0.33030   0.02576
C215   C   0.21398   0.19689   0.33030   0.02577
C216   C   0.98290   0.78602   0.33030   0.02576
C217   C   0.33160   0.44265   0.34723   -0.16779
C218   C   0.55735   0.88895   0.34723   -0.16778
C219   C   0.11105   0.66840   0.34723   -0.16779
C220   C   0.44265   0.33160   0.65277   -0.16779
C221   C   0.88895   0.55735   0.65277   -0.16779
C222   C   0.66840   0.11105   0.65277   -0.16778
C223   C   0.99827   0.77598   0.68056   -0.16779
C224   C   0.22402   0.22228   0.68056   -0.16778
C225   C   0.77772   0.00173   0.68056   -0.16779
C226   C   0.10932   0.66493   0.98610   -0.16779
C227   C   0.55562   0.89068   0.98610   -0.16779
C228   C   0.33507   0.44438   0.98610   -0.16778
C229   C   0.66493   0.10932   0.01390   -0.16779
C230   C   0.89068   0.55562   0.01390   -0.16778
C231   C   0.44438   0.33507   0.01390   -0.16779
C232   C   0.77598   0.99827   0.31944   -0.16779
C233   C   0.22228   0.22402   0.31944   -0.16779
C234   C   0.00173   0.77772   0.31944   -0.16778
C235   C   0.33832   0.42093   0.34602   -0.09086
C236   C   0.57907   0.91739   0.34602   -0.09086
C237   C   0.08261   0.66168   0.34602   -0.09086
C238   C   0.42093   0.33832   0.65398   -0.09086
C239   C   0.91739   0.57907   0.65398   -0.09086
C240   C   0.66168   0.08261   0.65398   -0.09086
C241   C   0.00499   0.75426   0.67935   -0.09086
C242   C   0.24574   0.25072   0.67935   -0.09086
C243   C   0.74928   0.99501   0.67935   -0.09086
C244   C   0.08760   0.67165   0.98731   -0.09086
C245   C   0.58406   0.91240   0.98731   -0.09086
C246   C   0.32835   0.41594   0.98731   -0.09086
C247   C   0.67165   0.08760   0.01269   -0.09086
C248   C   0.91240   0.58406   0.01269   -0.09086
C249   C   0.41594   0.32835   0.01269   -0.09086
C250   C   0.75426   0.00499   0.32065   -0.09085
C251   C   0.25072   0.24574   0.32065   -0.09086
C252   C   0.99501   0.74928   0.32065   -0.09086
C253   C   0.36397   0.42584   0.33413   -0.06752
C254   C   0.57416   0.93813   0.33413   -0.06752
C255   C   0.06187   0.63603   0.33413   -0.06752
C256   C   0.42584   0.36397   0.66587   -0.06752
C257   C   0.93813   0.57416   0.66587   -0.06752
C258   C   0.63603   0.06187   0.66587   -0.06752
C259   C   0.03064   0.75917   0.66746   -0.06753
C260   C   0.24083   0.27146   0.66746   -0.06752
C261   C   0.72854   0.96936   0.66746   -0.06752
C262   C   0.09251   0.69730   0.99920   -0.06752
C263   C   0.60480   0.90749   0.99920   -0.06752
C264   C   0.30270   0.39520   0.99920   -0.06751
C265   C   0.69730   0.09251   0.00080   -0.06752
C266   C   0.90749   0.60480   0.00080   -0.06751
C267   C   0.39520   0.30270   0.00080   -0.06752
C268   C   0.75917   0.03064   0.33254   -0.06752
C269   C   0.27146   0.24083   0.33254   -0.06752
C270   C   0.96936   0.72854   0.33254   -0.06752
C271   C   0.38271   0.45290   0.32312   0.10455
C272   C   0.54710   0.92981   0.32312   0.10455
C273   C   0.07019   0.61729   0.32312   0.10455
C274   C   0.45290   0.38271   0.67688   0.10455
C275   C   0.92981   0.54710   0.67688   0.10455
C276   C   0.61729   0.07019   0.67688   0.10455
C277   C   0.04938   0.78623   0.65645   0.10455
C278   C   0.21377   0.26314   0.65645   0.10454
C279   C   0.73686   0.95062   0.65645   0.10455
C280   C   0.11957   0.71604   0.01021   0.10455
C281   C   0.59648   0.88043   0.01021   0.10455
C282   C   0.28396   0.40352   0.01021   0.10454
C283   C   0.71604   0.11957   0.98979   0.10455
C284   C   0.88043   0.59648   0.98979   0.10454
C285   C   0.40352   0.28396   0.98979   0.10455
C286   C   0.78623   0.04938   0.34355   0.10455
C287   C   0.26314   0.21377   0.34355   0.10455
C288   C   0.95062   0.73686   0.34355   0.10455
C289   C   0.38556   0.35915   0.33333   -0.06013
C290   C   0.64085   0.02641   0.33333   -0.06013
C291   C   0.97359   0.61444   0.33333   -0.06013
C292   C   0.35915   0.38556   0.66667   -0.06013
C293   C   0.02641   0.64085   0.66667   -0.06013
C294   C   0.61444   0.97359   0.66667   -0.06013
C295   C   0.05223   0.69248   0.66667   -0.06013
C296   C   0.30752   0.35974   0.66667   -0.06013
C297   C   0.64026   0.94777   0.66667   -0.06013
C298   C   0.02582   0.71889   0.00000   -0.06013
C299   C   0.69308   0.97418   0.00000   -0.06013
C300   C   0.28111   0.30692   0.00000   -0.06013
C301   C   0.71889   0.02582   0.00000   -0.06013
C302   C   0.97418   0.69308   0.00000   -0.06013
C303   C   0.30692   0.28111   0.00000   -0.06013
C304   C   0.69248   0.05223   0.33333   -0.06013
C305   C   0.35974   0.30752   0.33333   -0.06013
C306   C   0.94777   0.64026   0.33333   -0.06013
C307   C   0.35693   0.42524   0.62603   -0.12141
C308   C   0.57476   0.93169   0.62603   -0.12141
C309   C   0.06831   0.64307   0.62603   -0.12142
C310   C   0.42524   0.35693   0.37397   -0.12141
C311   C   0.93169   0.57476   0.37397   -0.12142
C312   C   0.64307   0.06831   0.37397   -0.12141
C313   C   0.02360   0.75857   0.95936   -0.12141
C314   C   0.24143   0.26502   0.95936   -0.12142
C315   C   0.73498   0.97640   0.95936   -0.12142
C316   C   0.09191   0.69026   0.70730   -0.12142
C317   C   0.59836   0.90809   0.70730   -0.12141
C318   C   0.30974   0.40164   0.70730   -0.12141
C319   C   0.69026   0.09191   0.29270   -0.12142
C320   C   0.90809   0.59836   0.29270   -0.12141
C321   C   0.40164   0.30974   0.29270   -0.12142
C322   C   0.75857   0.02360   0.04064   -0.12142
C323   C   0.26502   0.24143   0.04064   -0.12142
C324   C   0.97640   0.73498   0.04064   -0.12141
C325   C   0.33262   0.40781   0.64201   -0.06271
C326   C   0.59219   0.92481   0.64201   -0.06271
C327   C   0.07519   0.66738   0.64201   -0.06271
C328   C   0.40781   0.33262   0.35799   -0.06270
C329   C   0.92481   0.59219   0.35799   -0.06271
C330   C   0.66738   0.07519   0.35799   -0.06271
C331   C   0.99929   0.74114   0.97534   -0.06271
C332   C   0.25886   0.25814   0.97534   -0.06271
C333   C   0.74186   0.00071   0.97534   -0.06271
C334   C   0.07448   0.66595   0.69132   -0.06271
C335   C   0.59148   0.92552   0.69132   -0.06271
C336   C   0.33405   0.40852   0.69132   -0.06271
C337   C   0.66595   0.07448   0.30868   -0.06271
C338   C   0.92552   0.59148   0.30868   -0.06271
C339   C   0.40852   0.33405   0.30868   -0.06271
C340   C   0.74114   0.99929   0.02466   -0.06271
C341   C   0.25814   0.25886   0.02466   -0.06271
C342   C   0.00071   0.74186   0.02466   -0.06271
C343   C   0.30759   0.40904   0.63689   -0.11639
C344   C   0.59096   0.89855   0.63689   -0.11638
C345   C   0.10145   0.69241   0.63689   -0.11639
C346   C   0.40904   0.30759   0.36311   -0.11639
C347   C   0.89855   0.59096   0.36311   -0.11639
C348   C   0.69241   0.10145   0.36311   -0.11639
C349   C   0.97426   0.74237   0.97022   -0.11639
C350   C   0.25763   0.23188   0.97022   -0.11638
C351   C   0.76812   0.02574   0.97022   -0.11639
C352   C   0.07571   0.64092   0.69644   -0.11638
C353   C   0.56522   0.92429   0.69644   -0.11639
C354   C   0.35908   0.43478   0.69644   -0.11638
C355   C   0.64092   0.07571   0.30356   -0.11638
C356   C   0.92429   0.56522   0.30356   -0.11638
C357   C   0.43478   0.35908   0.30356   -0.11638
C358   C   0.74237   0.97426   0.02978   -0.11639
C359   C   0.23188   0.25763   0.02978   -0.11638
C360   C   0.02574   0.76812   0.02978   -0.11639
C361   C   0.30618   0.42513   0.61541   -0.10650
C362   C   0.57487   0.88105   0.61541   -0.10651
C363   C   0.11895   0.69382   0.61541   -0.10650
C364   C   0.42513   0.30618   0.38459   -0.10650
C365   C   0.88105   0.57487   0.38459   -0.10650
C366   C   0.69382   0.11895   0.38459   -0.10651
C367   C   0.97285   0.75846   0.94874   -0.10650
C368   C   0.24154   0.21438   0.94874   -0.10650
C369   C   0.78562   0.02715   0.94874   -0.10650
C370   C   0.09180   0.63951   0.71792   -0.10650
C371   C   0.54772   0.90820   0.71792   -0.10650
C372   C   0.36049   0.45228   0.71792   -0.10651
C373   C   0.63951   0.09180   0.28208   -0.10650
C374   C   0.90820   0.54772   0.28208   -0.10650
C375   C   0.45228   0.36049   0.28208   -0.10650
C376   C   0.75846   0.97285   0.05126   -0.10650
C377   C   0.21438   0.24154   0.05126   -0.10650
C378   C   0.02715   0.78562   0.05126   -0.10650
C379   C   0.33008   0.44139   0.59894   -0.04122
C380   C   0.55861   0.88869   0.59894   -0.04122
C381   C   0.11131   0.66992   0.59894   -0.04122
C382   C   0.44139   0.33008   0.40106   -0.04122
C383   C   0.88869   0.55861   0.40106   -0.04122
C384   C   0.66992   0.11131   0.40106   -0.04122
C385   C   0.99675   0.77472   0.93227   -0.04122
C386   C   0.22528   0.22202   0.93227   -0.04122
C387   C   0.77798   0.00325   0.93227   -0.04122
C388   C   0.10806   0.66341   0.73439   -0.04122
C389   C   0.55536   0.89194   0.73439   -0.04122
C390   C   0.33659   0.44464   0.73439   -0.04121
C391   C   0.66341   0.10806   0.26561   -0.04122
C392   C   0.89194   0.55536   0.26561   -0.04122
C393   C   0.44464   0.33659   0.26561   -0.04122
C394   C   0.77472   0.99675   0.06773   -0.04122
C395   C   0.22202   0.22528   0.06773   -0.04122
C396   C   0.00325   0.77798   0.06773   -0.04122
C397   C   0.35550   0.44140   0.60453   -0.11538
C398   C   0.55860   0.91410   0.60453   -0.11538
C399   C   0.08590   0.64450   0.60453   -0.11537
C400   C   0.44140   0.35550   0.39547   -0.11537
C401   C   0.91410   0.55860   0.39547   -0.11537
C402   C   0.64450   0.08590   0.39547   -0.11538
C403   C   0.02217   0.77473   0.93786   -0.11538
C404   C   0.22527   0.24743   0.93786   -0.11538
C405   C   0.75257   0.97783   0.93786   -0.11537
C406   C   0.10807   0.68883   0.72880   -0.11537
C407   C   0.58077   0.89193   0.72880   -0.11538
C408   C   0.31117   0.41923   0.72880   -0.11538
C409   C   0.68883   0.10807   0.27120   -0.11538
C410   C   0.89193   0.58077   0.27120   -0.11538
C411   C   0.41923   0.31117   0.27120   -0.11538
C412   C   0.77473   0.02217   0.06214   -0.11537
C413   C   0.24743   0.22527   0.06214   -0.11537
C414   C   0.97783   0.75257   0.06214   -0.11538
C415   C   0.31618   0.47573   0.57966   0.10481
C416   C   0.52427   0.84045   0.57966   0.10481
C417   C   0.15955   0.68382   0.57966   0.10480
C418   C   0.47573   0.31618   0.42034   0.10480
C419   C   0.84045   0.52427   0.42034   0.10480
C420   C   0.68382   0.15955   0.42034   0.10481
C421   C   0.98285   0.80906   0.91299   0.10479
C422   C   0.19094   0.17378   0.91299   0.10481
C423   C   0.82622   0.01715   0.91299   0.10479
C424   C   0.14240   0.64951   0.75367   0.10480
C425   C   0.50712   0.85760   0.75367   0.10480
C426   C   0.35049   0.49288   0.75367   0.10481
C427   C   0.64951   0.14240   0.24633   0.10481
C428   C   0.85760   0.50712   0.24633   0.10481
C429   C   0.49288   0.35049   0.24633   0.10480
C430   C   0.80906   0.98285   0.08701   0.10478
C431   C   0.17378   0.19094   0.08701   0.10480
C432   C   0.01715   0.82622   0.08701   0.10480
C433   C   0.32852   0.45843   0.57608   -0.06582
C434   C   0.54157   0.87009   0.57608   -0.06582
C435   C   0.12991   0.67148   0.57608   -0.06580
C436   C   0.45843   0.32852   0.42392   -0.06581
C437   C   0.87009   0.54157   0.42392   -0.06581
C438   C   0.67148   0.12991   0.42392   -0.06582
C439   C   0.99519   0.79176   0.90941   -0.06579
C440   C   0.20824   0.20342   0.90941   -0.06582
C441   C   0.79658   0.00481   0.90941   -0.06580
C442   C   0.12510   0.66185   0.75725   -0.06581
C443   C   0.53676   0.87490   0.75725   -0.06581
C444   C   0.33815   0.46324   0.75725   -0.06582
C445   C   0.66185   0.12510   0.24275   -0.06582
C446   C   0.87490   0.53676   0.24275   -0.06582
C447   C   0.46324   0.33815   0.24275   -0.06581
C448   C   0.79176   0.99519   0.09059   -0.06579
C449   C   0.20342   0.20824   0.09059   -0.06581
C450   C   0.00481   0.79658   0.09059   -0.06581
C451   C   0.33913   0.45722   0.55029   -0.09168
C452   C   0.54278   0.88191   0.55029   -0.09168
C453   C   0.11809   0.66087   0.55029   -0.09169
C454   C   0.45722   0.33913   0.44971   -0.09169
C455   C   0.88191   0.54278   0.44971   -0.09168
C456   C   0.66087   0.11809   0.44971   -0.09168
C457   C   0.00580   0.79055   0.88362   -0.09169
C458   C   0.20945   0.21524   0.88362   -0.09168
C459   C   0.78476   0.99420   0.88362   -0.09169
C460   C   0.12389   0.67246   0.78304   -0.09169
C461   C   0.54858   0.87611   0.78304   -0.09168
C462   C   0.32754   0.45142   0.78304   -0.09168
C463   C   0.67246   0.12389   0.21696   -0.09168
C464   C   0.87611   0.54858   0.21696   -0.09168
C465   C   0.45142   0.32754   0.21696   -0.09169
C466   C   0.79055   0.00580   0.11638   -0.09169
C467   C   0.21524   0.20945   0.11638   -0.09169
C468   C   0.99420   0.78476   0.11638   -0.09168
C469   C   0.33733   0.47283   0.52846   -0.16799
C470   C   0.52717   0.86450   0.52846   -0.16799
C471   C   0.13550   0.66267   0.52846   -0.16798
C472   C   0.47283   0.33733   0.47154   -0.16798
C473   C   0.86450   0.52717   0.47154   -0.16798
C474   C   0.66267   0.13550   0.47154   -0.16799
C475   C   0.00400   0.80616   0.86179   -0.16798
C476   C   0.19384   0.19783   0.86179   -0.16799
C477   C   0.80217   0.99600   0.86179   -0.16798
C478   C   0.13950   0.67066   0.80487   -0.16798
C479   C   0.53117   0.86050   0.80487   -0.16799
C480   C   0.32934   0.46883   0.80487   -0.16799
C481   C   0.67066   0.13950   0.19513   -0.16799
C482   C   0.86050   0.53117   0.19513   -0.16799
C483   C   0.46883   0.32934   0.19513   -0.16798
C484   C   0.80616   0.00400   0.13821   -0.16797
C485   C   0.19783   0.19384   0.13821   -0.16798
C486   C   0.99600   0.80217   0.13821   -0.16799
C487   C   0.32502   0.49015   0.53215   0.02706
C488   C   0.50985   0.83487   0.53215   0.02706
C489   C   0.16513   0.67498   0.53215   0.02705
C490   C   0.49015   0.32502   0.46785   0.02705
C491   C   0.83487   0.50985   0.46785   0.02706
C492   C   0.67498   0.16513   0.46785   0.02706
C493   C   0.99169   0.82348   0.86548   0.02705
C494   C   0.17652   0.16820   0.86548   0.02706
C495   C   0.83180   0.00831   0.86548   0.02705
C496   C   0.15682   0.65835   0.80118   0.02705
C497   C   0.50154   0.84318   0.80118   0.02706
C498   C   0.34165   0.49846   0.80118   0.02706
C499   C   0.65835   0.15682   0.19882   0.02706
C500   C   0.84318   0.50154   0.19882   0.02706
C501   C   0.49846   0.34165   0.19882   0.02705
C502   C   0.82348   0.99169   0.13452   0.02704
C503   C   0.16820   0.17652   0.13452   0.02705
C504   C   0.00831   0.83180   0.13452   0.02706
C505   C   0.31435   0.49124   0.55780   -0.13407
C506   C   0.50876   0.82311   0.55780   -0.13407
C507   C   0.17689   0.68565   0.55780   -0.13406
C508   C   0.49124   0.31435   0.44220   -0.13406
C509   C   0.82311   0.50876   0.44220   -0.13407
C510   C   0.68565   0.17689   0.44220   -0.13407
C511   C   0.98102   0.82457   0.89113   -0.13405
C512   C   0.17543   0.15644   0.89113   -0.13407
C513   C   0.84356   0.01898   0.89113   -0.13405
C514   C   0.15791   0.64768   0.77553   -0.13406
C515   C   0.48978   0.84209   0.77553   -0.13407
C516   C   0.35232   0.51022   0.77553   -0.13407
C517   C   0.64768   0.15791   0.22447   -0.13407
C518   C   0.84209   0.48978   0.22447   -0.13407
C519   C   0.51022   0.35232   0.22447   -0.13406
C520   C   0.82457   0.98102   0.10887   -0.13405
C521   C   0.15644   0.17543   0.10887   -0.13406
C522   C   0.01898   0.84356   0.10887   -0.13406
C523   C   0.33601   0.51324   0.48743   0.00947
C524   C   0.48676   0.82277   0.48743   0.00948
C525   C   0.17723   0.66399   0.48743   0.00947
C526   C   0.51324   0.33601   0.51257   0.00947
C527   C   0.82277   0.48676   0.51257   0.00947
C528   C   0.66399   0.17723   0.51257   0.00948
C529   C   0.00268   0.84657   0.82076   0.00948
C530   C   0.15343   0.15610   0.82076   0.00948
C531   C   0.84390   0.99732   0.82076   0.00947
C532   C   0.17991   0.66934   0.84590   0.00946
C533   C   0.48944   0.82009   0.84590   0.00948
C534   C   0.33066   0.51056   0.84590   0.00948
C535   C   0.66934   0.17991   0.15410   0.00947
C536   C   0.82009   0.48944   0.15410   0.00948
C537   C   0.51056   0.33066   0.15410   0.00946
C538   C   0.84657   0.00268   0.17924   0.00947
C539   C   0.15610   0.15343   0.17924   0.00947
C540   C   0.99732   0.84390   0.17924   0.00948
C541   C   0.32799   0.57108   0.43320   -0.00260
C542   C   0.42892   0.75691   0.43320   -0.00259
C543   C   0.24309   0.67201   0.43320   -0.00260
C544   C   0.57108   0.32799   0.56680   -0.00261
C545   C   0.75691   0.42892   0.56680   -0.00259
C546   C   0.67201   0.24309   0.56680   -0.00259
C547   C   0.99466   0.90441   0.76653   -0.00259
C548   C   0.09559   0.09024   0.76653   -0.00259
C549   C   0.90976   0.00534   0.76653   -0.00261
C550   C   0.23775   0.66132   0.90013   -0.00261
C551   C   0.42358   0.76225   0.90013   -0.00259
C552   C   0.33868   0.57642   0.90013   -0.00259
C553   C   0.66132   0.23775   0.09987   -0.00260
C554   C   0.76225   0.42358   0.09987   -0.00259
C555   C   0.57642   0.33868   0.09987   -0.00260
C556   C   0.90441   0.99466   0.23347   -0.00260
C557   C   0.09024   0.09559   0.23347   -0.00260
C558   C   0.00534   0.90976   0.23347   -0.00259
C559   C   0.32746   0.59376   0.41667   -0.02646
C560   C   0.40624   0.73370   0.41667   -0.02646
C561   C   0.26630   0.67254   0.41667   -0.02646
C562   C   0.59376   0.32746   0.58333   -0.02646
C563   C   0.73370   0.40624   0.58333   -0.02646
C564   C   0.67254   0.26630   0.58333   -0.02646
C565   C   0.99413   0.92709   0.75000   -0.02646
C566   C   0.07291   0.06703   0.75000   -0.02646
C567   C   0.93297   0.00587   0.75000   -0.02645
C568   C   0.26043   0.66079   0.91667   -0.02645
C569   C   0.40037   0.73957   0.91667   -0.02646
C570   C   0.33921   0.59963   0.91667   -0.02646
C571   C   0.66079   0.26043   0.08333   -0.02646
C572   C   0.73957   0.40037   0.08333   -0.02646
C573   C   0.59963   0.33921   0.08333   -0.02646
C574   C   0.92709   0.99413   0.25000   -0.02646
C575   C   0.06703   0.07291   0.25000   -0.02646
C576   C   0.00587   0.93297   0.25000   -0.02646
C577   C   0.32925   0.61727   0.43061   -0.09689
C578   C   0.38273   0.71198   0.43061   -0.09689
C579   C   0.28802   0.67075   0.43061   -0.09690
C580   C   0.61727   0.32925   0.56939   -0.09689
C581   C   0.71198   0.38273   0.56939   -0.09689
C582   C   0.67075   0.28802   0.56939   -0.09689
C583   C   0.99592   0.95060   0.76394   -0.09689
C584   C   0.04940   0.04531   0.76394   -0.09689
C585   C   0.95469   0.00408   0.76394   -0.09690
C586   C   0.28394   0.66258   0.90272   -0.09690
C587   C   0.37865   0.71606   0.90272   -0.09689
C588   C   0.33742   0.62135   0.90272   -0.09689
C589   C   0.66258   0.28394   0.09728   -0.09689
C590   C   0.71606   0.37865   0.09728   -0.09689
C591   C   0.62135   0.33742   0.09728   -0.09690
C592   C   0.95060   0.99592   0.23606   -0.09690
C593   C   0.04531   0.04940   0.23606   -0.09689
C594   C   0.00408   0.95469   0.23606   -0.09689
C595   C   0.33088   0.63993   0.41594   -0.06696
C596   C   0.36007   0.69095   0.41594   -0.06696
C597   C   0.30905   0.66912   0.41594   -0.06696
C598   C   0.63993   0.33088   0.58406   -0.06696
C599   C   0.69095   0.36007   0.58406   -0.06696
C600   C   0.66912   0.30905   0.58406   -0.06696
C601   C   0.99755   0.97326   0.74927   -0.06697
C602   C   0.02674   0.02428   0.74927   -0.06697
C603   C   0.97572   0.00245   0.74927   -0.06696
C604   C   0.30660   0.66421   0.91739   -0.06696
C605   C   0.35762   0.69340   0.91739   -0.06696
C606   C   0.33579   0.64238   0.91739   -0.06697
C607   C   0.66421   0.30660   0.08261   -0.06696
C608   C   0.69340   0.35762   0.08261   -0.06696
C609   C   0.64238   0.33579   0.08261   -0.06697
C610   C   0.97326   0.99755   0.25073   -0.06697
C611   C   0.02428   0.02674   0.25073   -0.06697
C612   C   0.00245   0.97572   0.25073   -0.06696
C613   C   0.30867   0.55832   0.45472   -0.14782
C614   C   0.44168   0.75035   0.45472   -0.14783
C615   C   0.24965   0.69133   0.45472   -0.14782
C616   C   0.55832   0.30867   0.54528   -0.14781
C617   C   0.75035   0.44168   0.54528   -0.14783
C618   C   0.69133   0.24965   0.54528   -0.14783
C619   C   0.97534   0.89165   0.78805   -0.14783
C620   C   0.10835   0.08368   0.78805   -0.14782
C621   C   0.91632   0.02466   0.78805   -0.14781
C622   C   0.22499   0.64200   0.87861   -0.14781
C623   C   0.41702   0.77501   0.87861   -0.14783
C624   C   0.35800   0.58298   0.87861   -0.14783
C625   C   0.64200   0.22499   0.12139   -0.14782
C626   C   0.77501   0.41702   0.12139   -0.14783
C627   C   0.58298   0.35800   0.12139   -0.14781
C628   C   0.89165   0.97534   0.21195   -0.14782
C629   C   0.08368   0.10835   0.21195   -0.14782
C630   C   0.02466   0.91632   0.21195   -0.14782
C631   C   0.31077   0.53896   0.47195   -0.05741
C632   C   0.46104   0.77181   0.47195   -0.05740
C633   C   0.22819   0.68923   0.47195   -0.05741
C634   C   0.53896   0.31077   0.52805   -0.05742
C635   C   0.77181   0.46104   0.52805   -0.05740
C636   C   0.68923   0.22819   0.52805   -0.05740
C637   C   0.97744   0.87229   0.80528   -0.05740
C638   C   0.12771   0.10514   0.80528   -0.05741
C639   C   0.89486   0.02256   0.80528   -0.05741
C640   C   0.20563   0.64410   0.86138   -0.05741
C641   C   0.43848   0.79437   0.86138   -0.05740
C642   C   0.35590   0.56152   0.86138   -0.05740
C643   C   0.64410   0.20563   0.13862   -0.05741
C644   C   0.79437   0.43848   0.13862   -0.05740
C645   C   0.56152   0.35590   0.13862   -0.05741
C646   C   0.87229   0.97744   0.19472   -0.05741
C647   C   0.10514   0.12771   0.19472   -0.05741
C648   C   0.02256   0.89486   0.19472   -0.05740
C649   C   0.33228   0.53196   0.46798   -0.09573
C650   C   0.46804   0.80032   0.46798   -0.09576
C651   C   0.19968   0.66772   0.46798   -0.09573
C652   C   0.53196   0.33228   0.53202   -0.09572
C653   C   0.80032   0.46804   0.53202   -0.09575
C654   C   0.66772   0.19968   0.53202   -0.09575
C655   C   0.99895   0.86529   0.80131   -0.09576
C656   C   0.13471   0.13365   0.80131   -0.09574
C657   C   0.86635   0.00105   0.80131   -0.09573
C658   C   0.19863   0.66561   0.86535   -0.09572
C659   C   0.46699   0.80137   0.86535   -0.09575
C660   C   0.33439   0.53301   0.86535   -0.09575
C661   C   0.66561   0.19863   0.13465   -0.09573
C662   C   0.80137   0.46699   0.13465   -0.09575
C663   C   0.53301   0.33439   0.13465   -0.09573
C664   C   0.86529   0.99895   0.19869   -0.09575
C665   C   0.13365   0.13471   0.19869   -0.09573
C666   C   0.00105   0.86635   0.19869   -0.09575
C667   C   0.34910   0.56367   0.42882   -0.15853
C668   C   0.43633   0.78543   0.42882   -0.15855
C669   C   0.21457   0.65090   0.42882   -0.15853
C670   C   0.56367   0.34910   0.57118   -0.15852
C671   C   0.78543   0.43633   0.57118   -0.15855
C672   C   0.65090   0.21457   0.57118   -0.15855
C673   C   0.01577   0.89700   0.76215   -0.15856
C674   C   0.10300   0.11876   0.76215   -0.15853
C675   C   0.88124   0.98423   0.76215   -0.15853
C676   C   0.23034   0.68243   0.90451   -0.15853
C677   C   0.45210   0.76966   0.90451   -0.15855
C678   C   0.31757   0.54790   0.90451   -0.15855
C679   C   0.68243   0.23034   0.09549   -0.15854
C680   C   0.76966   0.45210   0.09549   -0.15855
C681   C   0.54790   0.31757   0.09549   -0.15854
C682   C   0.89700   0.01577   0.23785   -0.15855
C683   C   0.11876   0.10300   0.23785   -0.15853
C684   C   0.98423   0.88124   0.23785   -0.15854
C685   C   0.35110   0.54407   0.44589   0.11585
C686   C   0.45593   0.80703   0.44589   0.11587
C687   C   0.19297   0.64890   0.44589   0.11585
C688   C   0.54407   0.35110   0.55411   0.11584
C689   C   0.80703   0.45593   0.55411   0.11586
C690   C   0.64890   0.19297   0.55411   0.11586
C691   C   0.01777   0.87740   0.77922   0.11588
C692   C   0.12260   0.14036   0.77922   0.11585
C693   C   0.85964   0.98223   0.77922   0.11585
C694   C   0.21074   0.68443   0.88744   0.11584
C695   C   0.47370   0.78926   0.88744   0.11586
C696   C   0.31557   0.52630   0.88744   0.11586
C697   C   0.68443   0.21074   0.11256   0.11585
C698   C   0.78926   0.47370   0.11256   0.11587
C699   C   0.52630   0.31557   0.11256   0.11585
C700   C   0.87740   0.01777   0.22078   0.11587
C701   C   0.14036   0.12260   0.22078   0.11584
C702   C   0.98223   0.85964   0.22078   0.11586
C703   C   0.36514   0.37464   0.64278   -0.12090
C704   C   0.62536   0.99050   0.64278   -0.12090
C705   C   0.00950   0.63486   0.64278   -0.12090
C706   C   0.37464   0.36514   0.35722   -0.12090
C707   C   0.99050   0.62536   0.35722   -0.12090
C708   C   0.63486   0.00950   0.35722   -0.12090
C709   C   0.03181   0.70797   0.97611   -0.12090
C710   C   0.29203   0.32383   0.97611   -0.12090
C711   C   0.67617   0.96819   0.97611   -0.12090
C712   C   0.04131   0.69847   0.69055   -0.12090
C713   C   0.65717   0.95869   0.69055   -0.12090
C714   C   0.30153   0.34283   0.69055   -0.12090
C715   C   0.69847   0.04131   0.30945   -0.12090
C716   C   0.95869   0.65717   0.30945   -0.12090
C717   C   0.34283   0.30153   0.30945   -0.12090
C718   C   0.70797   0.03181   0.02389   -0.12090
C719   C   0.32383   0.29203   0.02389   -0.12090
C720   C   0.96819   0.67617   0.02389   -0.12090
C721   C   0.38694   0.36799   0.64253   -0.11569
C722   C   0.63201   0.01895   0.64253   -0.11568
C723   C   0.98105   0.61306   0.64253   -0.11569
C724   C   0.36799   0.38694   0.35747   -0.11569
C725   C   0.01895   0.63201   0.35747   -0.11569
C726   C   0.61306   0.98105   0.35747   -0.11568
C727   C   0.05361   0.70132   0.97586   -0.11569
C728   C   0.29868   0.35228   0.97586   -0.11568
C729   C   0.64772   0.94639   0.97586   -0.11569
C730   C   0.03466   0.72027   0.69080   -0.11568
C731   C   0.68562   0.96534   0.69080   -0.11568
C732   C   0.27973   0.31438   0.69080   -0.11568
C733   C   0.72027   0.03466   0.30920   -0.11568
C734   C   0.96534   0.68562   0.30920   -0.11568
C735   C   0.31438   0.27973   0.30920   -0.11568
C736   C   0.70132   0.05361   0.02414   -0.11569
C737   C   0.35228   0.29868   0.02414   -0.11569
C738   C   0.94639   0.64772   0.02414   -0.11568
C739   C   0.40289   0.37127   0.66611   -0.04190
C740   C   0.62873   0.03162   0.66611   -0.04190
C741   C   0.96838   0.59711   0.66611   -0.04190
C742   C   0.37127   0.40289   0.33389   -0.04190
C743   C   0.03162   0.62873   0.33389   -0.04190
C744   C   0.59711   0.96838   0.33389   -0.04190
C745   C   0.06956   0.70460   0.99944   -0.04190
C746   C   0.29540   0.36495   0.99944   -0.04190
C747   C   0.63505   0.93044   0.99944   -0.04190
C748   C   0.03794   0.73622   0.66722   -0.04189
C749   C   0.69829   0.96206   0.66722   -0.04190
C750   C   0.26378   0.30171   0.66722   -0.04190
C751   C   0.73622   0.03794   0.33278   -0.04190
C752   C   0.96206   0.69829   0.33278   -0.04190
C753   C   0.30171   0.26378   0.33278   -0.04190
C754   C   0.70460   0.06956   0.00056   -0.04190
C755   C   0.36495   0.29540   0.00056   -0.04190
C756   C   0.93044   0.63505   0.00056   -0.04190
C757   C   0.39629   0.38079   0.69007   -0.10700
C758   C   0.61921   0.01550   0.69007   -0.10700
C759   C   0.98450   0.60371   0.69007   -0.10700
C760   C   0.38079   0.39629   0.30993   -0.10700
C761   C   0.01550   0.61921   0.30993   -0.10700
C762   C   0.60371   0.98450   0.30993   -0.10700
C763   C   0.06296   0.71412   0.02340   -0.10700
C764   C   0.28588   0.34883   0.02340   -0.10700
C765   C   0.65117   0.93704   0.02340   -0.10700
C766   C   0.04746   0.72962   0.64326   -0.10701
C767   C   0.68217   0.95254   0.64326   -0.10700
C768   C   0.27038   0.31783   0.64326   -0.10700
C769   C   0.72962   0.04746   0.35674   -0.10701
C770   C   0.95254   0.68217   0.35674   -0.10700
C771   C   0.31783   0.27038   0.35674   -0.10701
C772   C   0.71412   0.06296   0.97660   -0.10700
C773   C   0.34883   0.28588   0.97660   -0.10700
C774   C   0.93704   0.65117   0.97660   -0.10700
C775   C   0.37449   0.38742   0.69036   -0.11866
C776   C   0.61258   0.98707   0.69036   -0.11866
C777   C   0.01293   0.62551   0.69036   -0.11866
C778   C   0.38742   0.37449   0.30964   -0.11866
C779   C   0.98707   0.61258   0.30964   -0.11865
C780   C   0.62551   0.01293   0.30964   -0.11866
C781   C   0.04116   0.72075   0.02369   -0.11865
C782   C   0.27925   0.32040   0.02369   -0.11866
C783   C   0.67960   0.95884   0.02369   -0.11865
C784   C   0.05409   0.70782   0.64297   -0.11865
C785   C   0.65374   0.94591   0.64297   -0.11866
C786   C   0.29218   0.34626   0.64297   -0.11866
C787   C   0.70782   0.05409   0.35703   -0.11865
C788   C   0.94591   0.65374   0.35703   -0.11866
C789   C   0.34626   0.29218   0.35703   -0.11866
C790   C   0.72075   0.04116   0.97631   -0.11866
C791   C   0.32040   0.27925   0.97631   -0.11865
C792   C   0.95884   0.67960   0.97631   -0.11866
C793   C   0.33333   0.39042   0.66667   0.12130
C794   C   0.60958   0.94291   0.66667   0.12131
C795   C   0.05709   0.66667   0.66667   0.12130
C796   C   0.39042   0.33333   0.33333   0.12130
C797   C   0.94291   0.60958   0.33333   0.12131
C798   C   0.66667   0.05709   0.33333   0.12130
C799   C   0.00000   0.72375   0.00000   0.12131
C800   C   0.27625   0.27625   0.00000   0.12131
C801   C   0.72375   0.00000   0.00000   0.12131
C802   C   0.33333   0.66667   0.95910   0.01912
C803   C   0.66667   0.33333   0.04090   0.01912
C804   C   0.00000   0.00000   0.29243   0.01912
C805   C   0.33333   0.66667   0.37423   0.01912
C806   C   0.66667   0.33333   0.62577   0.01912
C807   C   0.00000   0.00000   0.70757   0.01912
C808   C   0.33333   0.66667   0.90469   0.01389
C809   C   0.66667   0.33333   0.09531   0.01389
C810   C   0.00000   0.00000   0.23802   0.01389
C811   C   0.33333   0.66667   0.42864   0.01389
C812   C   0.66667   0.33333   0.57136   0.01389
C813   C   0.00000   0.00000   0.76198   0.01389
N1   N   0.34585   0.49356   0.33943   -0.18006
N2   N   0.50644   0.85229   0.33943   -0.18006
N3   N   0.14771   0.65415   0.33943   -0.18007
N4   N   0.49356   0.34585   0.66057   -0.18007
N5   N   0.85229   0.50644   0.66057   -0.18006
N6   N   0.65415   0.14771   0.66057   -0.18006
N7   N   0.01252   0.82689   0.67276   -0.18007
N8   N   0.17311   0.18562   0.67276   -0.18007
N9   N   0.81438   0.98748   0.67276   -0.18007
N10   N   0.16023   0.67918   0.99390   -0.18007
N11   N   0.51896   0.83977   0.99390   -0.18007
N12   N   0.32082   0.48104   0.99390   -0.18007
N13   N   0.67918   0.16023   0.00610   -0.18007
N14   N   0.83977   0.51896   0.00610   -0.18007
N15   N   0.48104   0.32082   0.00610   -0.18007
N16   N   0.82689   0.01252   0.32724   -0.18007
N17   N   0.18562   0.17311   0.32724   -0.18007
N18   N   0.98748   0.81438   0.32724   -0.18007
N19   N   0.32267   0.50683   0.51062   -0.18554
N20   N   0.49317   0.81584   0.51062   -0.18555
N21   N   0.18416   0.67733   0.51062   -0.18554
N22   N   0.50683   0.32267   0.48938   -0.18554
N23   N   0.81584   0.49317   0.48938   -0.18554
N24   N   0.67733   0.18416   0.48938   -0.18555
N25   N   0.98934   0.84016   0.84395   -0.18555
N26   N   0.15984   0.14917   0.84395   -0.18554
N27   N   0.85083   0.01066   0.84395   -0.18554
N28   N   0.17350   0.65600   0.82271   -0.18554
N29   N   0.48251   0.82650   0.82271   -0.18555
N30   N   0.34400   0.51749   0.82271   -0.18555
N31   N   0.65600   0.17350   0.17729   -0.18554
N32   N   0.82650   0.48251   0.17729   -0.18555
N33   N   0.51749   0.34400   0.17729   -0.18553
N34   N   0.84016   0.98934   0.15605   -0.18554
N35   N   0.14917   0.15984   0.15605   -0.18554
N36   N   0.01066   0.85083   0.15605   -0.18555
F1   F   0.40810   0.45872   0.31222   -0.09818
F2   F   0.54128   0.94938   0.31222   -0.09818
F3   F   0.05062   0.59190   0.31222   -0.09818
F4   F   0.45872   0.40810   0.68778   -0.09818
F5   F   0.94938   0.54128   0.68778   -0.09818
F6   F   0.59190   0.05062   0.68778   -0.09818
F7   F   0.07477   0.79205   0.64555   -0.09818
F8   F   0.20795   0.28271   0.64555   -0.09819
F9   F   0.71729   0.92523   0.64555   -0.09818
F10   F   0.12539   0.74143   0.02111   -0.09818
F11   F   0.61605   0.87461   0.02111   -0.09818
F12   F   0.25857   0.38395   0.02111   -0.09818
F13   F   0.74143   0.12539   0.97889   -0.09818
F14   F   0.87461   0.61605   0.97889   -0.09818
F15   F   0.38395   0.25857   0.97889   -0.09818
F16   F   0.79205   0.07477   0.35445   -0.09818
F17   F   0.28271   0.20795   0.35445   -0.09818
F18   F   0.92523   0.71729   0.35445   -0.09818
F19   F   0.50504   0.36011   0.27112   -0.09674
F20   F   0.63989   0.14493   0.27112   -0.09674
F21   F   0.85507   0.49496   0.27112   -0.09674
F22   F   0.36011   0.50504   0.72888   -0.09674
F23   F   0.14493   0.63989   0.72888   -0.09674
F24   F   0.49496   0.85507   0.72888   -0.09674
F25   F   0.17171   0.69344   0.60445   -0.09674
F26   F   0.30656   0.47826   0.60445   -0.09674
F27   F   0.52174   0.82829   0.60445   -0.09674
F28   F   0.02678   0.83837   0.06221   -0.09675
F29   F   0.81160   0.97322   0.06221   -0.09676
F30   F   0.16163   0.18840   0.06221   -0.09674
F31   F   0.83837   0.02678   0.93779   -0.09675
F32   F   0.97322   0.81160   0.93779   -0.09676
F33   F   0.18840   0.16163   0.93779   -0.09674
F34   F   0.69344   0.17171   0.39555   -0.09674
F35   F   0.47826   0.30656   0.39555   -0.09673
F36   F   0.82829   0.52174   0.39555   -0.09674
F37   F   0.45092   0.84258   0.96054   -0.10177
F38   F   0.15742   0.60834   0.96054   -0.10177
F39   F   0.39166   0.54908   0.96054   -0.10176
F40   F   0.84258   0.45092   0.03946   -0.10177
F41   F   0.60834   0.15742   0.03946   -0.10177
F42   F   0.54908   0.39166   0.03946   -0.10176
F43   F   0.11759   0.17591   0.29387   -0.10176
F44   F   0.82409   0.94167   0.29387   -0.10177
F45   F   0.05833   0.88241   0.29387   -0.10178
F46   F   0.50925   0.78425   0.37279   -0.10177
F47   F   0.27501   0.49075   0.37279   -0.10177
F48   F   0.21575   0.72499   0.37279   -0.10176
F49   F   0.78425   0.50925   0.62721   -0.10177
F50   F   0.49075   0.27501   0.62721   -0.10177
F51   F   0.72499   0.21575   0.62721   -0.10176
F52   F   0.17591   0.11759   0.70613   -0.10176
F53   F   0.94167   0.82409   0.70613   -0.10177
F54   F   0.88241   0.05833   0.70613   -0.10179
F55   F   0.50096   0.79551   0.89191   -0.10024
F56   F   0.20449   0.70545   0.89191   -0.10025
F57   F   0.29455   0.49904   0.89191   -0.10024
F58   F   0.79551   0.50096   0.10809   -0.10024
F59   F   0.70545   0.20449   0.10809   -0.10025
F60   F   0.49904   0.29455   0.10809   -0.10024
F61   F   0.16763   0.12884   0.22524   -0.10025
F62   F   0.87116   0.03878   0.22524   -0.10023
F63   F   0.96122   0.83237   0.22524   -0.10024
F64   F   0.46218   0.83429   0.44142   -0.10023
F65   F   0.37212   0.53782   0.44142   -0.10025
F66   F   0.16571   0.62788   0.44142   -0.10025
F67   F   0.83429   0.46218   0.55858   -0.10024
F68   F   0.53782   0.37212   0.55858   -0.10025
F69   F   0.62788   0.16571   0.55858   -0.10024
F70   F   0.12884   0.16763   0.77476   -0.10025
F71   F   0.03878   0.87116   0.77476   -0.10022
F72   F   0.83237   0.96122   0.77476   -0.10025
H1   H   0.32830   0.61612   0.35095   0.14366
H2   H   0.38388   0.71218   0.35095   0.14366
H3   H   0.28782   0.67170   0.35095   0.14366
H4   H   0.61612   0.32830   0.64905   0.14366
H5   H   0.71218   0.38388   0.64905   0.14366
H6   H   0.67170   0.28782   0.64905   0.14366
H7   H   0.99497   0.94945   0.68428   0.14366
H8   H   0.05055   0.04551   0.68428   0.14366
H9   H   0.95449   0.00503   0.68428   0.14366
H10   H   0.28279   0.66163   0.98238   0.14366
H11   H   0.37885   0.71721   0.98238   0.14366
H12   H   0.33837   0.62115   0.98238   0.14366
H13   H   0.66163   0.28279   0.01762   0.14366
H14   H   0.71721   0.37885   0.01762   0.14366
H15   H   0.62115   0.33837   0.01762   0.14366
H16   H   0.94945   0.99497   0.31572   0.14366
H17   H   0.04551   0.05055   0.31572   0.14366
H18   H   0.00503   0.95449   0.31572   0.14366
H19   H   0.36436   0.59073   0.35293   0.14443
H20   H   0.40927   0.77363   0.35293   0.14443
H21   H   0.22637   0.63564   0.35293   0.14443
H22   H   0.59073   0.36436   0.64707   0.14443
H23   H   0.77363   0.40927   0.64707   0.14443
H24   H   0.63564   0.22637   0.64707   0.14443
H25   H   0.03103   0.92406   0.68626   0.14443
H26   H   0.07594   0.10696   0.68626   0.14443
H27   H   0.89304   0.96897   0.68626   0.14443
H28   H   0.25740   0.69769   0.98040   0.14443
H29   H   0.44030   0.74260   0.98040   0.14443
H30   H   0.30231   0.55970   0.98040   0.14443
H31   H   0.69769   0.25740   0.01960   0.14443
H32   H   0.74260   0.44030   0.01960   0.14443
H33   H   0.55970   0.30231   0.01960   0.14443
H34   H   0.92406   0.03103   0.31374   0.14443
H35   H   0.10696   0.07594   0.31374   0.14443
H36   H   0.96897   0.89304   0.31374   0.14443
H37   H   0.28178   0.53920   0.38969   0.15634
H38   H   0.46080   0.74258   0.38969   0.15634
H39   H   0.25742   0.71822   0.38969   0.15634
H40   H   0.53920   0.28178   0.61031   0.15634
H41   H   0.74258   0.46080   0.61031   0.15634
H42   H   0.71822   0.25742   0.61031   0.15634
H43   H   0.94845   0.87253   0.72302   0.15634
H44   H   0.12747   0.07591   0.72302   0.15634
H45   H   0.92409   0.05155   0.72302   0.15634
H46   H   0.20587   0.61511   0.94364   0.15634
H47   H   0.40925   0.79413   0.94364   0.15634
H48   H   0.38489   0.59075   0.94364   0.15634
H49   H   0.61511   0.20587   0.05636   0.15634
H50   H   0.79413   0.40925   0.05636   0.15634
H51   H   0.59075   0.38489   0.05636   0.15634
H52   H   0.87253   0.94845   0.27698   0.15634
H53   H   0.07591   0.12747   0.27698   0.15634
H54   H   0.05155   0.92409   0.27698   0.15634
H55   H   0.36273   0.54768   0.33505   0.16295
H56   H   0.45232   0.81505   0.33505   0.16295
H57   H   0.18495   0.63727   0.33505   0.16295
H58   H   0.54768   0.36273   0.66495   0.16295
H59   H   0.81505   0.45232   0.66495   0.16295
H60   H   0.63727   0.18495   0.66495   0.16295
H61   H   0.02940   0.88101   0.66838   0.16295
H62   H   0.11899   0.14838   0.66838   0.16295
H63   H   0.85162   0.97060   0.66838   0.16295
H64   H   0.21435   0.69606   0.99828   0.16295
H65   H   0.48172   0.78565   0.99828   0.16295
H66   H   0.30394   0.51828   0.99828   0.16295
H67   H   0.69606   0.21435   0.00172   0.16295
H68   H   0.78565   0.48172   0.00172   0.16295
H69   H   0.51828   0.30394   0.00172   0.16295
H70   H   0.88101   0.02940   0.33162   0.16295
H71   H   0.14838   0.11899   0.33162   0.16295
H72   H   0.97060   0.85162   0.33162   0.16295
H73   H   0.30252   0.47193   0.34780   0.11695
H74   H   0.52807   0.83059   0.34780   0.11695
H75   H   0.16941   0.69748   0.34780   0.11695
H76   H   0.47193   0.30252   0.65220   0.11695
H77   H   0.83059   0.52807   0.65220   0.11695
H78   H   0.69748   0.16941   0.65220   0.11695
H79   H   0.96919   0.80526   0.68113   0.11695
H80   H   0.19474   0.16392   0.68113   0.11695
H81   H   0.83608   0.03081   0.68113   0.11695
H82   H   0.13860   0.63585   0.98553   0.11695
H83   H   0.49726   0.86140   0.98553   0.11695
H84   H   0.36415   0.50274   0.98553   0.11694
H85   H   0.63585   0.13860   0.01447   0.11695
H86   H   0.86140   0.49726   0.01447   0.11694
H87   H   0.50274   0.36415   0.01447   0.11695
H88   H   0.80526   0.96919   0.31887   0.11695
H89   H   0.16392   0.19474   0.31887   0.11694
H90   H   0.03081   0.83608   0.31887   0.11695
H91   H   0.39086   0.49554   0.31646   0.15965
H92   H   0.50446   0.89532   0.31646   0.15965
H93   H   0.10468   0.60914   0.31646   0.15965
H94   H   0.49554   0.39086   0.68354   0.15965
H95   H   0.89532   0.50446   0.68354   0.15965
H96   H   0.60914   0.10468   0.68354   0.15965
H97   H   0.05753   0.82887   0.64979   0.15965
H98   H   0.17113   0.22865   0.64979   0.15965
H99   H   0.77135   0.94247   0.64979   0.15964
H100   H   0.16221   0.72419   0.01687   0.15965
H101   H   0.56199   0.83779   0.01687   0.15965
H102   H   0.27581   0.43801   0.01687   0.15965
H103   H   0.72419   0.16221   0.98313   0.15965
H104   H   0.83779   0.56199   0.98313   0.15964
H105   H   0.43801   0.27581   0.98313   0.15965
H106   H   0.82887   0.05753   0.35021   0.15965
H107   H   0.22865   0.17113   0.35021   0.15965
H108   H   0.94247   0.77135   0.35021   0.15965
H109   H   0.31213   0.43821   0.35745   0.13813
H110   H   0.56179   0.87392   0.35745   0.13813
H111   H   0.12608   0.68787   0.35745   0.13813
H112   H   0.43821   0.31213   0.64255   0.13813
H113   H   0.87392   0.56179   0.64255   0.13813
H114   H   0.68787   0.12608   0.64255   0.13813
H115   H   0.97880   0.77154   0.69078   0.13813
H116   H   0.22846   0.20725   0.69078   0.13813
H117   H   0.79275   0.02120   0.69078   0.13813
H118   H   0.10488   0.64546   0.97588   0.13813
H119   H   0.54059   0.89512   0.97588   0.13813
H120   H   0.35454   0.45941   0.97588   0.13813
H121   H   0.64546   0.10488   0.02412   0.13813
H122   H   0.89512   0.54059   0.02412   0.13813
H123   H   0.45941   0.35454   0.02412   0.13813
H124   H   0.77154   0.97880   0.30922   0.13813
H125   H   0.20725   0.22846   0.30922   0.13813
H126   H   0.02120   0.79275   0.30922   0.13813
H127   H   0.32354   0.40027   0.35458   0.14586
H128   H   0.59973   0.92327   0.35458   0.14586
H129   H   0.07673   0.67646   0.35458   0.14586
H130   H   0.40027   0.32354   0.64542   0.14586
H131   H   0.92327   0.59973   0.64542   0.14586
H132   H   0.67646   0.07673   0.64542   0.14586
H133   H   0.99021   0.73360   0.68791   0.14586
H134   H   0.26640   0.25660   0.68791   0.14586
H135   H   0.74340   0.00979   0.68791   0.14586
H136   H   0.06694   0.65687   0.97875   0.14586
H137   H   0.58994   0.93306   0.97875   0.14586
H138   H   0.34313   0.41006   0.97875   0.14586
H139   H   0.65687   0.06694   0.02125   0.14586
H140   H   0.93306   0.58994   0.02125   0.14586
H141   H   0.41006   0.34313   0.02125   0.14586
H142   H   0.73360   0.99021   0.31209   0.14586
H143   H   0.25660   0.26640   0.31209   0.14586
H144   H   0.00979   0.74340   0.31209   0.14586
H145   H   0.37733   0.42699   0.63030   0.14095
H146   H   0.57301   0.95034   0.63030   0.14095
H147   H   0.04966   0.62267   0.63030   0.14095
H148   H   0.42699   0.37733   0.36970   0.14095
H149   H   0.95034   0.57301   0.36970   0.14095
H150   H   0.62267   0.04966   0.36970   0.14095
H151   H   0.04400   0.76032   0.96363   0.14095
H152   H   0.23968   0.28367   0.96363   0.14095
H153   H   0.71633   0.95600   0.96363   0.14095
H154   H   0.09366   0.71066   0.70303   0.14095
H155   H   0.61701   0.90634   0.70303   0.14095
H156   H   0.28934   0.38299   0.70303   0.14095
H157   H   0.71066   0.09366   0.29697   0.14095
H158   H   0.90634   0.61701   0.29697   0.14095
H159   H   0.38299   0.28934   0.29697   0.14095
H160   H   0.76032   0.04400   0.03637   0.14095
H161   H   0.28367   0.23968   0.03637   0.14095
H162   H   0.95600   0.71633   0.03637   0.14095
H163   H   0.28885   0.39711   0.64946   0.14092
H164   H   0.60289   0.89174   0.64946   0.14092
H165   H   0.10826   0.71115   0.64946   0.14092
H166   H   0.39711   0.28885   0.35054   0.14092
H167   H   0.89174   0.60289   0.35054   0.14092
H168   H   0.71115   0.10826   0.35054   0.14092
H169   H   0.95552   0.73044   0.98279   0.14092
H170   H   0.26956   0.22507   0.98279   0.14092
H171   H   0.77493   0.04448   0.98279   0.14092
H172   H   0.06378   0.62218   0.68387   0.14092
H173   H   0.55841   0.93622   0.68387   0.14092
H174   H   0.37782   0.44159   0.68387   0.14092
H175   H   0.62218   0.06378   0.31613   0.14092
H176   H   0.93622   0.55841   0.31613   0.14092
H177   H   0.44159   0.37782   0.31613   0.14092
H178   H   0.73044   0.95552   0.01721   0.14092
H179   H   0.22507   0.26956   0.01721   0.14092
H180   H   0.04448   0.77493   0.01721   0.14092
H181   H   0.28626   0.42467   0.61156   0.14109
H182   H   0.57533   0.86159   0.61156   0.14109
H183   H   0.13841   0.71374   0.61156   0.14109
H184   H   0.42467   0.28626   0.38844   0.14109
H185   H   0.86159   0.57533   0.38844   0.14109
H186   H   0.71374   0.13841   0.38844   0.14109
H187   H   0.95293   0.75800   0.94489   0.14110
H188   H   0.24200   0.19492   0.94489   0.14110
H189   H   0.80508   0.04707   0.94489   0.14110
H190   H   0.09134   0.61959   0.72177   0.14109
H191   H   0.52826   0.90866   0.72177   0.14110
H192   H   0.38041   0.47174   0.72177   0.14109
H193   H   0.61959   0.09134   0.27823   0.14109
H194   H   0.90866   0.52826   0.27823   0.14109
H195   H   0.47174   0.38041   0.27823   0.14110
H196   H   0.75800   0.95293   0.05511   0.14110
H197   H   0.19492   0.24200   0.05511   0.14109
H198   H   0.04707   0.80508   0.05511   0.14110
H199   H   0.37448   0.45443   0.59257   0.13530
H200   H   0.54557   0.92005   0.59257   0.13529
H201   H   0.07995   0.62552   0.59257   0.13529
H202   H   0.45443   0.37448   0.40743   0.13530
H203   H   0.92005   0.54557   0.40743   0.13529
H204   H   0.62552   0.07995   0.40743   0.13529
H205   H   0.04115   0.78776   0.92590   0.13529
H206   H   0.21224   0.25338   0.92590   0.13529
H207   H   0.74662   0.95885   0.92590   0.13529
H208   H   0.12110   0.70781   0.74076   0.13529
H209   H   0.58672   0.87890   0.74076   0.13529
H210   H   0.29219   0.41328   0.74076   0.13529
H211   H   0.70781   0.12110   0.25924   0.13529
H212   H   0.87890   0.58672   0.25924   0.13529
H213   H   0.41328   0.29219   0.25924   0.13530
H214   H   0.78776   0.04115   0.07410   0.13529
H215   H   0.25338   0.21224   0.07410   0.13529
H216   H   0.95885   0.74662   0.07410   0.13529
H217   H   0.34841   0.44378   0.54694   0.14481
H218   H   0.55622   0.90463   0.54694   0.14482
H219   H   0.09537   0.65159   0.54694   0.14482
H220   H   0.44378   0.34841   0.45306   0.14482
H221   H   0.90463   0.55622   0.45306   0.14482
H222   H   0.65159   0.09537   0.45306   0.14481
H223   H   0.01508   0.77711   0.88027   0.14482
H224   H   0.22289   0.23796   0.88027   0.14481
H225   H   0.76204   0.98492   0.88027   0.14482
H226   H   0.11045   0.68174   0.78639   0.14481
H227   H   0.57130   0.88955   0.78639   0.14482
H228   H   0.31826   0.42870   0.78639   0.14481
H229   H   0.68174   0.11045   0.21361   0.14481
H230   H   0.88955   0.57130   0.21361   0.14481
H231   H   0.42870   0.31826   0.21361   0.14482
H232   H   0.77711   0.01508   0.11973   0.14482
H233   H   0.23796   0.22289   0.11973   0.14481
H234   H   0.98492   0.76204   0.11973   0.14481
H235   H   0.34519   0.47083   0.50884   0.13773
H236   H   0.52917   0.87436   0.50884   0.13773
H237   H   0.12564   0.65481   0.50884   0.13773
H238   H   0.47083   0.34519   0.49116   0.13773
H239   H   0.87436   0.52917   0.49116   0.13773
H240   H   0.65481   0.12564   0.49116   0.13773
H241   H   0.01186   0.80416   0.84217   0.13773
H242   H   0.19584   0.20769   0.84217   0.13773
H243   H   0.79231   0.98814   0.84217   0.13773
H244   H   0.13750   0.67852   0.82449   0.13773
H245   H   0.54103   0.86250   0.82449   0.13772
H246   H   0.32148   0.45897   0.82449   0.13773
H247   H   0.67852   0.13750   0.17551   0.13773
H248   H   0.86250   0.54103   0.17551   0.13773
H249   H   0.45897   0.32148   0.17551   0.13773
H250   H   0.80416   0.01186   0.15783   0.13773
H251   H   0.20769   0.19584   0.15783   0.13773
H252   H   0.98814   0.79231   0.15783   0.13773
H253   H   0.30487   0.50452   0.56091   0.16049
H254   H   0.49548   0.80035   0.56091   0.16049
H255   H   0.19965   0.69513   0.56091   0.16049
H256   H   0.50452   0.30487   0.43909   0.16049
H257   H   0.80035   0.49548   0.43909   0.16049
H258   H   0.69513   0.19965   0.43909   0.16049
H259   H   0.97154   0.83785   0.89424   0.16049
H260   H   0.16215   0.13368   0.89424   0.16049
H261   H   0.86632   0.02846   0.89424   0.16049
H262   H   0.17119   0.63820   0.77242   0.16049
H263   H   0.46702   0.82881   0.77242   0.16049
H264   H   0.36180   0.53298   0.77242   0.16049
H265   H   0.63820   0.17119   0.22758   0.16049
H266   H   0.82881   0.46702   0.22758   0.16049
H267   H   0.53298   0.36180   0.22758   0.16049
H268   H   0.83785   0.97154   0.10576   0.16049
H269   H   0.13368   0.16215   0.10576   0.16049
H270   H   0.02846   0.86632   0.10576   0.16049
H271   H   0.35137   0.50664   0.48280   0.11673
H272   H   0.49336   0.84473   0.48280   0.11673
H273   H   0.15527   0.64863   0.48280   0.11673
H274   H   0.50664   0.35137   0.51720   0.11673
H275   H   0.84473   0.49336   0.51720   0.11673
H276   H   0.64863   0.15527   0.51720   0.11673
H277   H   0.01804   0.83997   0.81613   0.11672
H278   H   0.16003   0.17806   0.81613   0.11673
H279   H   0.82194   0.98196   0.81613   0.11673
H280   H   0.17331   0.68470   0.85053   0.11673
H281   H   0.51140   0.82669   0.85053   0.11673
H282   H   0.31530   0.48860   0.85053   0.11673
H283   H   0.68470   0.17331   0.14947   0.11673
H284   H   0.82669   0.51140   0.14947   0.11673
H285   H   0.48860   0.31530   0.14947   0.11673
H286   H   0.83997   0.01804   0.18387   0.11673
H287   H   0.17806   0.16003   0.18387   0.11673
H288   H   0.98196   0.82194   0.18387   0.11673
H289   H   0.33007   0.61824   0.45264   0.14614
H290   H   0.38176   0.71183   0.45264   0.14614
H291   H   0.28817   0.66993   0.45264   0.14614
H292   H   0.61824   0.33007   0.54736   0.14614
H293   H   0.71183   0.38176   0.54736   0.14614
H294   H   0.66993   0.28817   0.54736   0.14614
H295   H   0.99674   0.95157   0.78597   0.14614
H296   H   0.04843   0.04516   0.78597   0.14614
H297   H   0.95484   0.00326   0.78597   0.14614
H298   H   0.28491   0.66340   0.88069   0.14615
H299   H   0.37850   0.71509   0.88069   0.14615
H300   H   0.33660   0.62150   0.88069   0.14615
H301   H   0.66340   0.28491   0.11931   0.14615
H302   H   0.71509   0.37850   0.11931   0.14615
H303   H   0.62150   0.33660   0.11931   0.14615
H304   H   0.95157   0.99674   0.21403   0.14614
H305   H   0.04516   0.04843   0.21403   0.14614
H306   H   0.00326   0.95484   0.21403   0.14614
H307   H   0.29223   0.56376   0.45845   0.14369
H308   H   0.43624   0.72847   0.45845   0.14369
H309   H   0.27153   0.70777   0.45845   0.14369
H310   H   0.56376   0.29223   0.54155   0.14369
H311   H   0.72847   0.43624   0.54155   0.14369
H312   H   0.70777   0.27153   0.54155   0.14369
H313   H   0.95890   0.89709   0.79178   0.14368
H314   H   0.10291   0.06180   0.79178   0.14369
H315   H   0.93820   0.04110   0.79178   0.14369
H316   H   0.23043   0.62556   0.87488   0.14368
H317   H   0.39514   0.76957   0.87488   0.14368
H318   H   0.37444   0.60486   0.87488   0.14369
H319   H   0.62556   0.23043   0.12512   0.14369
H320   H   0.76957   0.39514   0.12512   0.14369
H321   H   0.60486   0.37444   0.12512   0.14369
H322   H   0.89709   0.95890   0.20822   0.14369
H323   H   0.06180   0.10291   0.20822   0.14369
H324   H   0.04110   0.93820   0.20822   0.14369
H325   H   0.29581   0.52983   0.48866   0.16422
H326   H   0.47017   0.76598   0.48866   0.16422
H327   H   0.23402   0.70419   0.48866   0.16422
H328   H   0.52983   0.29581   0.51134   0.16422
H329   H   0.76598   0.47017   0.51134   0.16422
H330   H   0.70419   0.23402   0.51134   0.16422
H331   H   0.96248   0.86316   0.82199   0.16422
H332   H   0.13684   0.09931   0.82199   0.16422
H333   H   0.90069   0.03752   0.82199   0.16422
H334   H   0.19650   0.62914   0.84467   0.16422
H335   H   0.43265   0.80350   0.84467   0.16422
H336   H   0.37086   0.56735   0.84467   0.16422
H337   H   0.62914   0.19650   0.15533   0.16422
H338   H   0.80350   0.43265   0.15533   0.16422
H339   H   0.56735   0.37086   0.15533   0.16422
H340   H   0.86316   0.96248   0.17801   0.16422
H341   H   0.09931   0.13684   0.17801   0.16422
H342   H   0.03752   0.90069   0.17801   0.16422
H343   H   0.36460   0.57373   0.41267   0.15528
H344   H   0.42627   0.79087   0.41267   0.15527
H345   H   0.20913   0.63540   0.41267   0.15528
H346   H   0.57373   0.36460   0.58733   0.15528
H347   H   0.79087   0.42627   0.58733   0.15527
H348   H   0.63540   0.20913   0.58733   0.15527
H349   H   0.03127   0.90706   0.74600   0.15527
H350   H   0.09294   0.12420   0.74600   0.15528
H351   H   0.87580   0.96873   0.74600   0.15527
H352   H   0.24040   0.69793   0.92066   0.15527
H353   H   0.45754   0.75960   0.92066   0.15527
H354   H   0.30207   0.54246   0.92066   0.15528
H355   H   0.69793   0.24040   0.07934   0.15528
H356   H   0.75960   0.45754   0.07934   0.15527
H357   H   0.54246   0.30207   0.07934   0.15527
H358   H   0.90706   0.03127   0.25400   0.15527
H359   H   0.12420   0.09294   0.25400   0.15527
H360   H   0.96873   0.87580   0.25400   0.15527
H361   H   0.35280   0.37120   0.62439   0.13976
H362   H   0.62880   0.98160   0.62439   0.13976
H363   H   0.01840   0.64720   0.62439   0.13975
H364   H   0.37120   0.35280   0.37561   0.13975
H365   H   0.98160   0.62880   0.37561   0.13976
H366   H   0.64720   0.01840   0.37561   0.13976
H367   H   0.01947   0.70453   0.95772   0.13976
H368   H   0.29547   0.31493   0.95772   0.13976
H369   H   0.68507   0.98053   0.95772   0.13976
H370   H   0.03787   0.68613   0.70894   0.13975
H371   H   0.64827   0.96213   0.70894   0.13975
H372   H   0.31387   0.35173   0.70894   0.13975
H373   H   0.68613   0.03787   0.29106   0.13975
H374   H   0.96213   0.64827   0.29106   0.13975
H375   H   0.35173   0.31387   0.29106   0.13975
H376   H   0.70453   0.01947   0.04228   0.13976
H377   H   0.31493   0.29547   0.04228   0.13976
H378   H   0.98053   0.68507   0.04228   0.13976
H379   H   0.39135   0.36029   0.62384   0.13475
H380   H   0.63971   0.03106   0.62384   0.13475
H381   H   0.96894   0.60865   0.62384   0.13475
H382   H   0.36029   0.39135   0.37616   0.13475
H383   H   0.03106   0.63971   0.37616   0.13475
H384   H   0.60865   0.96894   0.37616   0.13475
H385   H   0.05802   0.69362   0.95717   0.13475
H386   H   0.30638   0.36439   0.95717   0.13475
H387   H   0.63561   0.94198   0.95717   0.13475
H388   H   0.02696   0.72468   0.70949   0.13475
H389   H   0.69773   0.97304   0.70949   0.13475
H390   H   0.27532   0.30227   0.70949   0.13475
H391   H   0.72468   0.02696   0.29051   0.13475
H392   H   0.97304   0.69773   0.29051   0.13475
H393   H   0.30227   0.27532   0.29051   0.13475
H394   H   0.69362   0.05802   0.04283   0.13475
H395   H   0.36439   0.30638   0.04283   0.13475
H396   H   0.94198   0.63561   0.04283   0.13475
H397   H   0.40753   0.38236   0.70882   0.14005
H398   H   0.61764   0.02517   0.70882   0.14005
H399   H   0.97483   0.59247   0.70882   0.14005
H400   H   0.38236   0.40753   0.29118   0.14005
H401   H   0.02517   0.61764   0.29118   0.14005
H402   H   0.59247   0.97483   0.29118   0.14005
H403   H   0.07420   0.71569   0.04215   0.14005
H404   H   0.28431   0.35850   0.04215   0.14005
H405   H   0.64150   0.92580   0.04215   0.14005
H406   H   0.04903   0.74086   0.62451   0.14005
H407   H   0.69184   0.95097   0.62451   0.14005
H408   H   0.25914   0.30816   0.62451   0.14005
H409   H   0.74086   0.04903   0.37549   0.14005
H410   H   0.95097   0.69184   0.37549   0.14005
H411   H   0.30816   0.25914   0.37549   0.14005
H412   H   0.71569   0.07420   0.95785   0.14005
H413   H   0.35850   0.28431   0.95785   0.14005
H414   H   0.92580   0.64150   0.95785   0.14005
H415   H   0.36930   0.39323   0.70970   0.14069
H416   H   0.60677   0.97607   0.70970   0.14069
H417   H   0.02393   0.63070   0.70970   0.14069
H418   H   0.39323   0.36930   0.29030   0.14069
H419   H   0.97607   0.60677   0.29030   0.14069
H420   H   0.63070   0.02393   0.29030   0.14069
H421   H   0.03597   0.72656   0.04303   0.14069
H422   H   0.27344   0.30940   0.04303   0.14069
H423   H   0.69060   0.96403   0.04303   0.14069
H424   H   0.05990   0.70263   0.62363   0.14070
H425   H   0.64274   0.94010   0.62363   0.14070
H426   H   0.29737   0.35726   0.62363   0.14070
H427   H   0.70263   0.05990   0.37637   0.14070
H428   H   0.94010   0.64274   0.37637   0.14070
H429   H   0.35726   0.29737   0.37637   0.14070
H430   H   0.72656   0.03597   0.95697   0.14069
H431   H   0.30940   0.27344   0.95697   0.14070
H432   H   0.96403   0.69060   0.95697   0.14070
H433   H   0.33333   0.66667   0.98173   0.12711
H434   H   0.66667   0.33333   0.01827   0.12711
H435   H   0.00000   0.00000   0.31506   0.12710
H436   H   0.33333   0.66667   0.35160   0.12711
H437   H   0.66667   0.33333   0.64840   0.12711
H438   H   0.00000   0.00000   0.68494   0.12710
H439   H   0.33333   0.66667   0.88205   0.12998
H440   H   0.66667   0.33333   0.11795   0.12998
H441   H   0.00000   0.00000   0.21538   0.12999
H442   H   0.33333   0.66667   0.45128   0.12998
H443   H   0.66667   0.33333   0.54872   0.12998
H444   H   0.00000   0.00000   0.78462   0.12999
