@<TRIPOS>MOLECULE
*****
 94 104 0 0 0
SMALL
GASTEIGER

@<TRIPOS>ATOM
      1 C           0.5947   29.9947   19.0075 C.ar    1  UNL1       -0.0309
      2 C           0.7964   32.4042   19.0075 C.ar    1  UNL1       -0.0309
      3 C          -1.3911   31.3741   19.0075 C.ar    1  UNL1       -0.0309
      4 C           1.1107   28.8985   18.3157 C.ar    1  UNL1       -0.0491
      5 C           1.4878   33.3991   18.3157 C.ar    1  UNL1       -0.0491
      6 C          -2.5984   31.4754   18.3157 C.ar    1  UNL1       -0.0491
      7 C           1.6302   27.8065   19.0385 C.ar    1  UNL1       -0.0098
      8 C           2.1737   34.3950   19.0385 C.ar    1  UNL1       -0.0098
      9 C          -3.8039   31.5715   19.0385 C.ar    1  UNL1       -0.0098
     10 C           3.2763   26.7324   17.5060 C.ar    1  UNL1       -0.0538
     11 C           2.2809   36.3577   17.5060 C.ar    1  UNL1       -0.0538
     12 C          -5.5572   30.6830   17.5060 C.ar    1  UNL1       -0.0538
     13 C           2.1312   26.6283   18.3059 C.ar    1  UNL1       -0.0146
     14 C           2.9436   35.4181   18.3059 C.ar    1  UNL1       -0.0146
     15 C          -5.0748   31.7267   18.3059 C.ar    1  UNL1       -0.0146
     16 C           1.5495   25.3712   18.5234 C.ar    1  UNL1       -0.0187
     17 C           4.3231   35.5428   18.5234 C.ar    1  UNL1       -0.0187
     18 C          -5.8726   32.8590   18.5234 C.ar    1  UNL1       -0.0187
     19 C           2.1523   24.2183   18.0186 C.ar    1  UNL1        0.1240
     20 C           5.0201   36.6414   18.0186 C.ar    1  UNL1        0.1240
     21 C          -7.1725   32.9134   18.0186 C.ar    1  UNL1        0.1240
     22 C           3.3569   24.3093   17.2997 C.ar    1  UNL1       -0.0264
     23 C           4.3390   37.6391   17.2997 C.ar    1  UNL1       -0.0264
     24 C          -7.6960   31.8247   17.2997 C.ar    1  UNL1       -0.0264
     25 C           3.8918   25.5789   17.0134 C.ar    1  UNL1       -0.0585
     26 C           2.9720   37.4675   17.0134 C.ar    1  UNL1       -0.0585
     27 C          -6.8639   30.7266   17.0134 C.ar    1  UNL1       -0.0585
     28 C           2.2982   26.7760   21.2717 C.ar    1  UNL1       -0.0146
     29 C           2.7322   35.4889   21.2717 C.ar    1  UNL1       -0.0146
     30 C          -5.0304   31.5082   21.2717 C.ar    1  UNL1       -0.0146
     31 C           1.6556   27.8394   20.4599 C.ar    1  UNL1       -0.0098
     32 C           2.1326   34.4006   20.4599 C.ar    1  UNL1       -0.0098
     33 C          -3.7882   31.5331   20.4599 C.ar    1  UNL1       -0.0098
     34 C           1.1161   28.9416   21.1445 C.ar    1  UNL1       -0.0491
     35 C           1.4477   33.3823   21.1445 C.ar    1  UNL1       -0.0491
     36 C          -2.5638   31.4491   21.1445 C.ar    1  UNL1       -0.0491
     37 C           0.5909   30.0041   20.4242 C.ar    1  UNL1       -0.0309
     38 C           0.7902   32.3962   20.4242 C.ar    1  UNL1       -0.0309
     39 C          -1.3811   31.3727   20.4242 C.ar    1  UNL1       -0.0309
     40 C           1.5977   26.1777   22.3284 C.ar    1  UNL1       -0.0538
     41 C           3.6006   35.1813   22.3284 C.ar    1  UNL1       -0.0538
     42 C          -5.1982   32.4141   22.3284 C.ar    1  UNL1       -0.0538
     43 C           2.2354   25.2700   23.1745 C.ar    1  UNL1       -0.0585
     44 C           4.0678   36.1875   23.1745 C.ar    1  UNL1       -0.0585
     45 C          -6.3032   32.3156   23.1745 C.ar    1  UNL1       -0.0585
     46 C           3.5895   24.9418   22.9796 C.ar    1  UNL1       -0.0264
     47 C           3.6750   37.5242   22.9796 C.ar    1  UNL1       -0.0264
     48 C          -7.2645   31.3071   22.9796 C.ar    1  UNL1       -0.0264
     49 C           3.6417   26.4285   21.0567 C.ar    1  UNL1       -0.0187
     50 C           2.3613   36.8261   21.0567 C.ar    1  UNL1       -0.0187
     51 C          -6.0030   30.5184   21.0567 C.ar    1  UNL1       -0.0187
     52 C           4.2806   25.5096   21.8949 C.ar    1  UNL1        0.1240
     53 C           2.8377   37.8388   21.8949 C.ar    1  UNL1        0.1240
     54 C          -7.1183   30.4247   21.8949 C.ar    1  UNL1        0.1240
     55 C          -0.0000   31.2577   18.3762 C.3     1  UNL1        0.0351
     56 C          -0.0000   31.2577   21.0480 C.3     1  UNL1        0.0351
     57 F           6.3409   36.7709   18.3055 F       1  UNL1       -0.2055
     58 F           1.6042   23.0097   18.3055 F       1  UNL1       -0.2055
     59 F          -7.9450   33.9924   18.3055 F       1  UNL1       -0.2055
     60 F           2.4379   39.1171   21.6755 F       1  UNL1       -0.2055
     61 F           5.5875   25.2167   21.6755 F       1  UNL1       -0.2055
     62 F          -8.0254   29.4393   21.6755 F       1  UNL1       -0.2055
     63 H           1.0958   28.8877   17.2329 H       1  UNL1        0.0627
     64 H           1.5046   33.3916   17.2329 H       1  UNL1        0.0627
     65 H          -2.6003   31.4937   17.2329 H       1  UNL1        0.0627
     66 H           3.7354   27.6973   17.3302 H       1  UNL1        0.0624
     67 H           1.2157   36.2728   17.3302 H       1  UNL1        0.0624
     68 H          -4.9511   29.8029   17.3302 H       1  UNL1        0.0624
     69 H           0.6594   25.2812   19.1352 H       1  UNL1        0.0652
     70 H           4.8461   34.8170   19.1352 H       1  UNL1        0.0652
     71 H          -5.5055   33.6748   19.1352 H       1  UNL1        0.0652
     72 H           4.8125   25.6788   16.4522 H       1  UNL1        0.0619
     73 H           2.4252   38.2149   16.4522 H       1  UNL1        0.0619
     74 H          -7.2377   29.8794   16.4522 H       1  UNL1        0.0619
     75 H           1.1342   28.9871   22.2263 H       1  UNL1        0.0627
     76 H           1.3992   33.3752   22.2263 H       1  UNL1        0.0627
     77 H          -2.5335   31.4107   22.2263 H       1  UNL1        0.0627
     78 H           0.5604   26.4327   22.5116 H       1  UNL1        0.0624
     79 H           3.8983   34.1554   22.5116 H       1  UNL1        0.0624
     80 H          -4.4587   33.1849   22.5116 H       1  UNL1        0.0624
     81 H           1.6727   24.8419   23.9950 H       1  UNL1        0.0619
     82 H           4.7199   35.9141   23.9950 H       1  UNL1        0.0619
     83 H          -6.3926   33.0170   23.9950 H       1  UNL1        0.0619
     84 H           4.2086   26.9002   20.2636 H       1  UNL1        0.0652
     85 H           1.6694   37.0812   20.2636 H       1  UNL1        0.0652
     86 H          -5.8780   29.7917   20.2636 H       1  UNL1        0.0652
     87 H          -0.0000   31.2577   17.2650 H       1  UNL1        0.0446
     88 H          -0.0000   31.2577   22.1597 H       1  UNL1        0.0446
     89 H           3.8433   23.4549   16.9856 H       1  UNL1        0.0646
     90 H           4.8357   38.4874   16.9856 H       1  UNL1        0.0646
     91 H          -8.6790   31.8307   16.9856 H       1  UNL1        0.0646
     92 H           4.0687   24.2934   23.6237 H       1  UNL1        0.0646
     93 H           3.9969   38.2635   23.6237 H       1  UNL1        0.0646
     94 H          -8.0656   31.2162   23.6237 H       1  UNL1        0.0646
@<TRIPOS>BOND
     1    72    25    1
     2    73    26    1
     3    74    27    1
     4    90    23    1
     5    89    22    1
     6    91    24    1
     7    26    23   ar
     8    26    11   ar
     9    27    24   ar
    10    27    12   ar
    11    25    22   ar
    12    25    10   ar
    13    64     5    1
    14    63     4    1
    15    65     6    1
    16    87    55    1
    17    23    20   ar
    18    22    19   ar
    19    24    21   ar
    20    68    12    1
    21    66    10    1
    22    67    11    1
    23    12    15   ar
    24    10    13   ar
    25    11    14   ar
    26    20    57    1
    27    20    17   ar
    28    21    59    1
    29    21    18   ar
    30    19    58    1
    31    19    16   ar
    32    14    17   ar
    33    14     8    1
    34    13    16   ar
    35    13     7    1
    36    15    18   ar
    37    15     9    1
    38     4     1   ar
    39     4     7   ar
    40     5     2   ar
    41     5     8   ar
    42     6     3   ar
    43     6     9   ar
    44    55     2    1
    45    55     3    1
    46    55     1    1
    47    17    70    1
    48    16    69    1
    49    18    71    1
    50     2    38   ar
    51     3    39   ar
    52     1    37   ar
    53     8    32   ar
    54     9    33   ar
    55     7    31   ar
    56    84    49    1
    57    85    50    1
    58    86    51    1
    59    37    56    1
    60    37    34   ar
    61    38    56    1
    62    38    35   ar
    63    39    56    1
    64    39    36   ar
    65    33    36   ar
    66    33    30    1
    67    32    35   ar
    68    32    29    1
    69    31    34   ar
    70    31    28    1
    71    56    88    1
    72    51    30   ar
    73    51    54   ar
    74    50    29   ar
    75    50    53   ar
    76    49    28   ar
    77    49    52   ar
    78    34    75    1
    79    36    77    1
    80    35    76    1
    81    30    42   ar
    82    28    40   ar
    83    29    41   ar
    84    60    53    1
    85    61    52    1
    86    62    54    1
    87    53    47   ar
    88    54    48   ar
    89    52    46   ar
    90    40    78    1
    91    40    43   ar
    92    41    79    1
    93    41    44   ar
    94    42    80    1
    95    42    45   ar
    96    47    44   ar
    97    47    93    1
    98    46    43   ar
    99    46    92    1
   100    48    45   ar
   101    48    94    1
   102    45    83    1
   103    43    81    1
   104    44    82    1
