@<TRIPOS>MOLECULE
*****
 137 148 0 0 0
SMALL
GASTEIGER

@<TRIPOS>ATOM
      1 C           3.2763   26.7324   17.5060 C.ar    1  UNL1       -0.0610
      2 C           3.2763    4.5254   15.2299 C.ar    1  UNL1       -0.0610
      3 C           2.1312   26.6283   18.3059 C.ar    1  UNL1       -0.0590
      4 C           2.1312    4.6294   14.4300 C.ar    1  UNL1       -0.0590
      5 C           1.5495   25.3712   18.5234 C.ar    1  UNL1       -0.0258
      6 C           1.5495    5.8865   14.2124 C.ar    1  UNL1       -0.0258
      7 C           2.1523   24.2183   18.0186 C.ar    1  UNL1        0.1320
      8 C           2.1523    7.0394   14.7172 C.ar    1  UNL1        0.1320
      9 C           3.3569   24.3093   17.2997 C.ar    1  UNL1        0.0282
     10 C           3.3569    6.9484   15.4361 C.ar    1  UNL1        0.0282
     11 C           3.8918   25.5789   17.0134 C.ar    1  UNL1       -0.0504
     12 C           3.8918    5.6788   15.7224 C.ar    1  UNL1       -0.0504
     13 C           4.1011   23.0804   16.9673 C.2     1  UNL1        0.0381
     14 C           4.1011    8.1773   15.7685 C.2     1  UNL1        0.0381
     15 C           7.5046   22.2528   15.9283 C.ar    1  UNL1       -0.0005
     16 C           7.5046    9.0049   16.8076 C.ar    1  UNL1       -0.0005
     17 C           6.2553   22.0264   16.5170 C.ar    1  UNL1        0.0666
     18 C           6.2553    9.2314   16.2188 C.ar    1  UNL1        0.0666
     19 C           5.9703   20.7543   17.0503 C.ar    1  UNL1       -0.0356
     20 C           5.9703   10.5034   15.6855 C.ar    1  UNL1       -0.0356
     21 C           6.9221   19.7359   16.9909 C.ar    1  UNL1       -0.0493
     22 C           6.9220   11.5218   15.7449 C.ar    1  UNL1       -0.0493
     23 C           8.1778   19.9662   16.4070 C.ar    1  UNL1        0.0175
     24 C           8.1778   11.2915   16.3288 C.ar    1  UNL1        0.0175
     25 C           8.4599   21.2349   15.8664 C.ar    1  UNL1        0.1331
     26 C           8.4599   10.0228   16.8694 C.ar    1  UNL1        0.1331
     27 C          11.1520   16.8393   16.3679 C.ar    1  UNL1       -0.0282
     28 C          11.1520   14.4184   16.3679 C.ar    1  UNL1       -0.0282
     29 C          13.3604   16.7352   18.3633 C.ar    1  UNL1       -0.0565
     30 C          13.3604   14.5225   14.3725 C.ar    1  UNL1       -0.0565
     31 C          13.0748   15.5954   17.5786 C.ar    1  UNL1       -0.0282
     32 C          13.0748   15.6623   15.1572 C.ar    1  UNL1       -0.0282
     33 C          13.8189   14.4218   17.8300 C.ar    1  UNL1       -0.0565
     34 C          13.8189   16.8359   14.9058 C.ar    1  UNL1       -0.0565
     35 C          14.7282   14.3557   18.8848 C.ar    1  UNL1       -0.0536
     36 C          14.7282   16.9020   13.8510 C.ar    1  UNL1       -0.0536
     37 C          14.9616   15.4763   19.6935 C.ar    1  UNL1       -0.0151
     38 C          14.9615   15.7814   13.0423 C.ar    1  UNL1       -0.0151
     39 C          14.2740   16.6682   19.4190 C.ar    1  UNL1       -0.0536
     40 C          14.2740   14.5895   13.3168 C.ar    1  UNL1       -0.0536
     41 C          17.1970   14.8246   20.6403 C.ar    1  UNL1        0.1331
     42 C          17.1970   16.4331   12.0956 C.ar    1  UNL1        0.1331
     43 C          15.9263   15.4032   20.8160 C.ar    1  UNL1        0.0175
     44 C          15.9263   15.8545   11.9198 C.ar    1  UNL1        0.0175
     45 C          15.5736   15.9006   22.0824 C.ar    1  UNL1       -0.0493
     46 C          15.5736   15.3571   10.6534 C.ar    1  UNL1       -0.0493
     47 C          16.4675   15.8162   23.1544 C.ar    1  UNL1       -0.0356
     48 C          16.4674   15.4415    9.5815 C.ar    1  UNL1       -0.0356
     49 C          17.7384   15.2391   22.9732 C.ar    1  UNL1        0.0666
     50 C          17.7384   16.0186    9.7627 C.ar    1  UNL1        0.0666
     51 C          18.0863   14.7388   21.7137 C.ar    1  UNL1       -0.0005
     52 C          18.0862   16.5189   11.0222 C.ar    1  UNL1       -0.0005
     53 C          18.6910   15.7543   25.1691 C.2     1  UNL1        0.0381
     54 C          18.6910   15.5034    7.5667 C.2     1  UNL1        0.0381
     55 C          22.0395   15.3783   27.8320 C.ar    1  UNL1       -0.0590
     56 C          22.0395   15.8794    4.9038 C.ar    1  UNL1       -0.0590
     57 C          21.8717   14.4725   26.7753 C.ar    1  UNL1       -0.0610
     58 C          21.8717   16.7852    5.9605 C.ar    1  UNL1       -0.0610
     59 C          20.7667   14.5709   25.9292 C.ar    1  UNL1       -0.0504
     60 C          20.7667   16.6868    6.8066 C.ar    1  UNL1       -0.0504
     61 C          19.8055   15.5795   26.1242 C.ar    1  UNL1        0.0282
     62 C          19.8054   15.6783    6.6117 C.ar    1  UNL1        0.0282
     63 C          21.0669   16.3681   28.0470 C.ar    1  UNL1       -0.0258
     64 C          21.0669   14.8896    4.6888 C.ar    1  UNL1       -0.0258
     65 C          19.9516   16.4619   27.2089 C.ar    1  UNL1        0.1320
     66 C          19.9516   14.7958    5.5270 C.ar    1  UNL1        0.1320
     67 C          10.3987   17.1201   17.5408 C.ar    1  UNL1       -0.0565
     68 C          10.3986   14.1375   15.1950 C.ar    1  UNL1       -0.0565
     69 C           9.4485   18.1423   17.5531 C.ar    1  UNL1       -0.0536
     70 C           9.4485   13.1154   15.1827 C.ar    1  UNL1       -0.0536
     71 C           9.1943   18.8901   16.3952 C.ar    1  UNL1       -0.0151
     72 C           9.1943   12.3676   16.3406 C.ar    1  UNL1       -0.0151
     73 C           9.8884   18.5807   15.2187 C.ar    1  UNL1       -0.0536
     74 C           9.8884   12.6770   17.5171 C.ar    1  UNL1       -0.0536
     75 C          10.8375   17.5585   15.2045 C.ar    1  UNL1       -0.0565
     76 C          10.8374   13.6992   17.5314 C.ar    1  UNL1       -0.0565
     77 C          12.1140   15.6288   16.3679 C.3     1  UNL1        0.0704
     78 N           5.3636   23.1413   16.6673 N.2     1  UNL1       -0.2548
     79 N           5.3636    8.1164   16.0685 N.2     1  UNL1       -0.2548
     80 N          18.7051   15.1289   24.0304 N.2     1  UNL1       -0.2548
     81 N          18.7050   16.1288    8.7055 N.2     1  UNL1       -0.2548
     82 F           9.6770   21.5078   15.3312 F       1  UNL1       -0.2048
     83 F           9.6769    9.7499   17.4047 F       1  UNL1       -0.2048
     84 F          17.5947   16.8843   13.3130 F       1  UNL1       -0.2048
     85 F          17.5946   14.3734   19.4228 F       1  UNL1       -0.2048
     86 F           1.6042    8.2479   14.4302 F       1  UNL1       -0.2048
     87 F           1.6042   23.0097   18.3055 F       1  UNL1       -0.2048
     88 F          19.0445   13.8104    5.3076 F       1  UNL1       -0.2048
     89 F          19.0445   17.4473   27.4282 F       1  UNL1       -0.2048
     90 H           3.7354   27.6973   17.3302 H       1  UNL1        0.0618
     91 H           3.7354    3.5604   15.4057 H       1  UNL1        0.0618
     92 H           0.6594   25.2812   19.1352 H       1  UNL1        0.0646
     93 H           0.6594    5.9765   13.6006 H       1  UNL1        0.0646
     94 H           4.8125   25.6788   16.4522 H       1  UNL1        0.0625
     95 H           4.8125    5.5789   16.2836 H       1  UNL1        0.0625
     96 H           3.6033   22.1272   17.0783 H       1  UNL1        0.0836
     97 H           3.6033    9.1305   15.6576 H       1  UNL1        0.0836
     98 H           7.7469   23.2342   15.5394 H       1  UNL1        0.0668
     99 H           7.7469    8.0236   17.1965 H       1  UNL1        0.0668
    100 H           5.0364   20.5462   17.5521 H       1  UNL1        0.0639
    101 H           5.0363   10.7116   15.1837 H       1  UNL1        0.0639
    102 H           6.6811   18.7673   17.4112 H       1  UNL1        0.0625
    103 H           6.6811   12.4904   15.3246 H       1  UNL1        0.0625
    104 H          12.9029   17.6917   18.1536 H       1  UNL1        0.0621
    105 H          12.9029   13.5660   14.5822 H       1  UNL1        0.0621
    106 H          13.6803   13.5432   17.2128 H       1  UNL1        0.0621
    107 H          13.6803   17.7145   15.5230 H       1  UNL1        0.0621
    108 H          15.2426   13.4217   19.0738 H       1  UNL1        0.0624
    109 H          15.2425   17.8360   13.6620 H       1  UNL1        0.0624
    110 H          14.4656   17.5581   20.0063 H       1  UNL1        0.0624
    111 H          14.4656   13.6996   12.7295 H       1  UNL1        0.0624
    112 H          14.5948   16.3357   22.2469 H       1  UNL1        0.0625
    113 H          14.5947   14.9220   10.4889 H       1  UNL1        0.0625
    114 H          16.1464   16.1848   24.1178 H       1  UNL1        0.0639
    115 H          16.1464   15.0729    8.6180 H       1  UNL1        0.0639
    116 H          19.0619   14.2943   21.5609 H       1  UNL1        0.0668
    117 H          19.0618   16.9634   11.1749 H       1  UNL1        0.0668
    118 H          17.9179   16.4745   25.3964 H       1  UNL1        0.0836
    119 H          17.9178   14.7832    7.3394 H       1  UNL1        0.0836
    120 H          22.6113   13.7017   26.5921 H       1  UNL1        0.0618
    121 H          22.6112   17.5560    6.1437 H       1  UNL1        0.0618
    122 H          20.6774   13.8695   25.1087 H       1  UNL1        0.0625
    123 H          20.6774   17.3882    7.6271 H       1  UNL1        0.0625
    124 H          21.1920   17.0948   28.8401 H       1  UNL1        0.0646
    125 H          21.1919   14.1629    3.8957 H       1  UNL1        0.0646
    126 H          10.5465   16.5416   18.4438 H       1  UNL1        0.0621
    127 H          10.5464   14.7161   14.2920 H       1  UNL1        0.0621
    128 H           8.9122   18.3490   18.4708 H       1  UNL1        0.0624
    129 H           8.9122   12.9087   14.2650 H       1  UNL1        0.0624
    130 H           9.6691   19.1077   14.2980 H       1  UNL1        0.0624
    131 H           9.6691   12.1500   18.4378 H       1  UNL1        0.0624
    132 H          11.2925   17.3152   14.2548 H       1  UNL1        0.0621
    133 H          11.2925   13.9425   18.4810 H       1  UNL1        0.0621
    134 H           1.7180   27.4721   18.7327 H       1  UNL1        0.0618
    135 H           1.7180    3.7856   14.0031 H       1  UNL1        0.0618
    136 H          22.8680   15.3185   28.4445 H       1  UNL1        0.0618
    137 H          22.8679   15.9392    4.2914 H       1  UNL1        0.0618
@<TRIPOS>BOND
     1   125    64    1
     2   137    56    1
     3    64    56   ar
     4    64    66   ar
     5    56    58   ar
     6    88    66    1
     7    66    62   ar
     8    58   121    1
     9    58    60   ar
    10    62    60   ar
    11    62    54    1
    12    60   123    1
    13   119    54    1
    14    54    81    2
    15   115    48    1
    16    81    50    1
    17    48    50   ar
    18    48    46   ar
    19    50    52   ar
    20   113    46    1
    21    46    44   ar
    22    52   117    1
    23    52    42   ar
    24    44    42   ar
    25    44    38    1
    26    42    84    1
    27   111    40    1
    28    38    40   ar
    29    38    36   ar
    30    40    30   ar
    31    93     6    1
    32   109    36    1
    33    36    34   ar
    34   135     4    1
    35     6     4   ar
    36     6     8   ar
    37   132    75    1
    38   129    70    1
    39   127    68    1
    40   130    73    1
    41    30   105    1
    42    30    32   ar
    43     4     2   ar
    44    86     8    1
    45     8    10   ar
    46    34    32   ar
    47    34   107    1
    48    32    77    1
    49    70    68   ar
    50    70    72   ar
    51   101    20    1
    52    68    28   ar
    53    75    73   ar
    54    75    27   ar
    55    73    71   ar
    56     2    91    1
    57     2    12   ar
    58   103    22    1
    59    82    25    1
    60    10    12   ar
    61    10    14    1
    62    98    15    1
    63    97    14    1
    64    20    22   ar
    65    20    18   ar
    66    12    95    1
    67    22    24   ar
    68    14    79    2
    69    25    15   ar
    70    25    23   ar
    71    15    17   ar
    72    79    18    1
    73    18    16   ar
    74    24    72    1
    75    24    26   ar
    76    72    74   ar
    77    77    28    1
    78    77    27    1
    79    77    31    1
    80    28    76   ar
    81    27    67   ar
    82    71    23    1
    83    71    69   ar
    84    23    21   ar
    85    94    11    1
    86    17    78    1
    87    17    19   ar
    88    78    13    2
    89    16    26   ar
    90    16    99    1
    91    26    83    1
    92    13    96    1
    93    13     9    1
    94    21    19   ar
    95    21   102    1
    96    11     9   ar
    97    11     1   ar
    98    19   100    1
    99   106    33    1
   100     9     7   ar
   101    90     1    1
   102     1     3   ar
   103    74    76   ar
   104    74   131    1
   105    76   133    1
   106    67    69   ar
   107    67   126    1
   108    69   128    1
   109    31    33   ar
   110    31    29   ar
   111    33    35   ar
   112     7    87    1
   113     7     5   ar
   114   104    29    1
   115     3     5   ar
   116     3   134    1
   117    29    39   ar
   118     5    92    1
   119    35   108    1
   120    35    37   ar
   121    39    37   ar
   122    39   110    1
   123    85    41    1
   124    37    43    1
   125    41    43   ar
   126    41    51   ar
   127    43    45   ar
   128   116    51    1
   129    51    49   ar
   130    45   112    1
   131    45    47   ar
   132    49    47   ar
   133    49    80    1
   134    47   114    1
   135    80    53    2
   136   122    59    1
   137    53   118    1
   138    53    61    1
   139    59    61   ar
   140    59    57   ar
   141    61    65   ar
   142   120    57    1
   143    57    55   ar
   144    65    89    1
   145    65    63   ar
   146    55    63   ar
   147    55   136    1
   148    63   124    1
