#======================================================================

# CRYSTAL DATA

#----------------------------------------------------------------------

data_VESTA_phase_1


_chemical_name_common                  ''
_cell_length_a                         22.95190
_cell_length_b                         22.95190
_cell_length_c                         39.79940
_cell_angle_alpha                      90
_cell_angle_beta                       90
_cell_angle_gamma                      120
_space_group_name_H-M_alt              'P 1'
_space_group_IT_number                 1

loop_
_space_group_symop_operation_xyz
   'x, y, z'

loop_
_atom_site_label
_atom_site_type_symbol
_atom_site_fract_x
_atom_site_fract_y
_atom_site_fract_z
_atom_site_charge
H1     H     0.30193     0.26338     0.11162     0.112516
H2     H     0.69807     0.73662     0.88838     0.112517
H3     H     0.73662     0.03855     0.11162     0.112515
H4     H     0.26338     0.96145     0.88838     0.112516
H5     H     0.96145     0.69807     0.11162     0.112516
H6     H     0.03855     0.30193     0.88838     0.112516
H7     H     0.69807     0.73662     0.11162     0.112517
H8     H     0.30193     0.26338     0.88838     0.112516
H9     H     0.26338     0.96145     0.11162     0.112516
H10     H     0.73662     0.03855     0.88838     0.112515
H11     H     0.03855     0.30193     0.11162     0.112516
H12     H     0.96145     0.69807     0.88838     0.112516
H13     H     0.26338     0.30193     0.38838     0.112516
H14     H     0.73662     0.69807     0.61162     0.112516
H15     H     0.03855     0.73662     0.38838     0.112517
H16     H     0.96145     0.26338     0.61162     0.112516
H17     H     0.69807     0.96145     0.38838     0.112516
H18     H     0.30193     0.03855     0.61162     0.112515
H19     H     0.73662     0.69807     0.38838     0.112516
H20     H     0.26338     0.30193     0.61162     0.112516
H21     H     0.96145     0.26338     0.38838     0.112516
H22     H     0.03855     0.73662     0.61162     0.112517
H23     H     0.30193     0.03855     0.38838     0.112515
H24     H     0.69807     0.96145     0.61162     0.112516
H25     H     0.50389     0.27578     0.09380     0.161146
H26     H     0.49611     0.72422     0.90620     0.161146
H27     H     0.72422     0.22811     0.09380     0.161146
H28     H     0.27578     0.77189     0.90620     0.161146
H29     H     0.77189     0.49611     0.09380     0.161147
H30     H     0.22811     0.50389     0.90620     0.161147
H31     H     0.49611     0.72422     0.09380     0.161146
H32     H     0.50389     0.27578     0.90620     0.161146
H33     H     0.27578     0.77189     0.09380     0.161146
H34     H     0.72422     0.22811     0.90620     0.161146
H35     H     0.22811     0.50389     0.09380     0.161147
H36     H     0.77189     0.49611     0.90620     0.161147
H37     H     0.27578     0.50389     0.40620     0.161147
H38     H     0.72422     0.49611     0.59380     0.161147
H39     H     0.22811     0.72422     0.40620     0.161145
H40     H     0.77189     0.27578     0.59380     0.161146
H41     H     0.49611     0.77189     0.40620     0.161146
H42     H     0.50389     0.22811     0.59380     0.161146
H43     H     0.72422     0.49611     0.40620     0.161147
H44     H     0.27578     0.50389     0.59380     0.161147
H45     H     0.77189     0.27578     0.40620     0.161146
H46     H     0.22811     0.72422     0.59380     0.161145
H47     H     0.50389     0.22811     0.40620     0.161146
H48     H     0.49611     0.77189     0.59380     0.161146
H49     H     0.34934     0.14050     0.18563     0.140826
H50     H     0.65066     0.85950     0.81437     0.140826
H51     H     0.85950     0.20884     0.18563     0.140826
H52     H     0.14050     0.79116     0.81437     0.140826
H53     H     0.79116     0.65066     0.18563     0.140827
H54     H     0.20884     0.34934     0.81437     0.140827
H55     H     0.65066     0.85950     0.18563     0.140826
H56     H     0.34934     0.14050     0.81437     0.140826
H57     H     0.14050     0.79116     0.18563     0.140826
H58     H     0.85950     0.20884     0.81437     0.140826
H59     H     0.20884     0.34934     0.18563     0.140827
H60     H     0.79116     0.65066     0.81437     0.140827
H61     H     0.14050     0.34934     0.31437     0.140827
H62     H     0.85950     0.65066     0.68563     0.140827
H63     H     0.20884     0.85950     0.31437     0.140826
H64     H     0.79116     0.14050     0.68563     0.140826
H65     H     0.65066     0.79116     0.31437     0.140826
H66     H     0.34934     0.20884     0.68563     0.140826
H67     H     0.85950     0.65066     0.31437     0.140827
H68     H     0.14050     0.34934     0.68563     0.140827
H69     H     0.79116     0.14050     0.31437     0.140826
H70     H     0.20884     0.85950     0.68563     0.140826
H71     H     0.34934     0.20884     0.31437     0.140826
H72     H     0.65066     0.79116     0.68563     0.140826
H73     H     0.32546     0.21558     0.15308     0.13587
H74     H     0.67454     0.78442     0.84692     0.13587
H75     H     0.78442     0.10988     0.15308     0.135871
H76     H     0.21558     0.89012     0.84692     0.13587
H77     H     0.89012     0.67454     0.15308     0.135872
H78     H     0.10988     0.32546     0.84692     0.135871
H79     H     0.67454     0.78442     0.15308     0.13587
H80     H     0.32546     0.21558     0.84692     0.13587
H81     H     0.21558     0.89012     0.15308     0.13587
H82     H     0.78442     0.10988     0.84692     0.135871
H83     H     0.10988     0.32546     0.15308     0.135871
H84     H     0.89012     0.67454     0.84692     0.135872
H85     H     0.21558     0.32546     0.34692     0.135871
H86     H     0.78442     0.67454     0.65308     0.135872
H87     H     0.10988     0.78442     0.34692     0.13587
H88     H     0.89012     0.21558     0.65308     0.13587
H89     H     0.67454     0.89012     0.34692     0.13587
H90     H     0.32546     0.10988     0.65308     0.135871
H91     H     0.78442     0.67454     0.34692     0.135872
H92     H     0.21558     0.32546     0.65308     0.135871
H93     H     0.89012     0.21558     0.34692     0.13587
H94     H     0.10988     0.78442     0.65308     0.13587
H95     H     0.32546     0.10988     0.34692     0.135871
H96     H     0.67454     0.89012     0.65308     0.13587
H97     H     0.23225     0.39755     0.05010     0.157459
H98     H     0.76775     0.60245     0.94990     0.157459
H99     H     0.60245     0.83470     0.05010     0.157459
H100     H     0.39755     0.16530     0.94990     0.157459
H101     H     0.16530     0.76775     0.05010     0.157458
H102     H     0.83470     0.23225     0.94990     0.157458
H103     H     0.76775     0.60245     0.05010     0.157459
H104     H     0.23225     0.39755     0.94990     0.157459
H105     H     0.39755     0.16530     0.05010     0.157459
H106     H     0.60245     0.83470     0.94990     0.157459
H107     H     0.83470     0.23225     0.05010     0.157458
H108     H     0.16530     0.76775     0.94990     0.157458
H109     H     0.39755     0.23225     0.44990     0.157458
H110     H     0.60245     0.76775     0.55010     0.157458
H111     H     0.83470     0.60245     0.44990     0.157459
H112     H     0.16530     0.39755     0.55010     0.157459
H113     H     0.76775     0.16530     0.44990     0.157459
H114     H     0.23225     0.83470     0.55010     0.157459
H115     H     0.60245     0.76775     0.44990     0.157458
H116     H     0.39755     0.23225     0.55010     0.157458
H117     H     0.16530     0.39755     0.44990     0.157459
H118     H     0.83470     0.60245     0.55010     0.157459
H119     H     0.23225     0.83470     0.44990     0.157459
H120     H     0.76775     0.16530     0.55010     0.157459
H121     H     0.44448     0.49034     0.03075     0.141048
H122     H     0.55552     0.50966     0.96925     0.141047
H123     H     0.50966     0.95414     0.03075     0.141049
H124     H     0.49034     0.04586     0.96925     0.141049
H125     H     0.04586     0.55552     0.03075     0.141047
H126     H     0.95414     0.44448     0.96925     0.141048
H127     H     0.55552     0.50966     0.03075     0.141047
H128     H     0.44448     0.49034     0.96925     0.141048
H129     H     0.49034     0.04586     0.03075     0.141049
H130     H     0.50966     0.95414     0.96925     0.141049
H131     H     0.95414     0.44448     0.03075     0.141048
H132     H     0.04586     0.55552     0.96925     0.141047
H133     H     0.49034     0.44448     0.46925     0.141048
H134     H     0.50966     0.55552     0.53075     0.141047
H135     H     0.95414     0.50966     0.46925     0.141047
H136     H     0.04586     0.49034     0.53075     0.141048
H137     H     0.55552     0.04586     0.46925     0.141049
H138     H     0.44448     0.95414     0.53075     0.141049
H139     H     0.50966     0.55552     0.46925     0.141047
H140     H     0.49034     0.44448     0.53075     0.141048
H141     H     0.04586     0.49034     0.46925     0.141048
H142     H     0.95414     0.50966     0.53075     0.141047
H143     H     0.44448     0.95414     0.46925     0.141049
H144     H     0.55552     0.04586     0.53075     0.141049
H145     H     0.45047     0.40488     0.06503     0.163848
H146     H     0.54953     0.59512     0.93497     0.163848
H147     H     0.59512     0.04559     0.06503     0.163848
H148     H     0.40488     0.95441     0.93497     0.163847
H149     H     0.95441     0.54953     0.06503     0.163848
H150     H     0.04559     0.45047     0.93497     0.163848
H151     H     0.54953     0.59512     0.06503     0.163848
H152     H     0.45047     0.40488     0.93497     0.163848
H153     H     0.40488     0.95441     0.06503     0.163847
H154     H     0.59512     0.04559     0.93497     0.163848
H155     H     0.04559     0.45047     0.06503     0.163848
H156     H     0.95441     0.54953     0.93497     0.163848
H157     H     0.40488     0.45047     0.43497     0.163848
H158     H     0.59512     0.54953     0.56503     0.163848
H159     H     0.04559     0.59512     0.43497     0.163848
H160     H     0.95441     0.40488     0.56503     0.163848
H161     H     0.54953     0.95441     0.43497     0.163847
H162     H     0.45047     0.04559     0.56503     0.163848
H163     H     0.59512     0.54953     0.43497     0.163848
H164     H     0.40488     0.45047     0.56503     0.163848
H165     H     0.95441     0.40488     0.43497     0.163848
H166     H     0.04559     0.59512     0.56503     0.163848
H167     H     0.45047     0.04559     0.43497     0.163848
H168     H     0.54953     0.95441     0.56503     0.163847
H169     H     0.35416     0.03600     0.18071     0.131119
H170     H     0.64584     0.96400     0.81929     0.131119
H171     H     0.96400     0.31816     0.18071     0.131118
H172     H     0.03600     0.68184     0.81929     0.131118
H173     H     0.68184     0.64584     0.18071     0.131119
H174     H     0.31816     0.35416     0.81929     0.131119
H175     H     0.64584     0.96400     0.18071     0.131119
H176     H     0.35416     0.03600     0.81929     0.131119
H177     H     0.03600     0.68184     0.18071     0.131118
H178     H     0.96400     0.31816     0.81929     0.131118
H179     H     0.31816     0.35416     0.18071     0.131119
H180     H     0.68184     0.64584     0.81929     0.131119
H181     H     0.03600     0.35416     0.31929     0.131119
H182     H     0.96400     0.64584     0.68071     0.131119
H183     H     0.31816     0.96400     0.31929     0.131119
H184     H     0.68184     0.03600     0.68071     0.131119
H185     H     0.64584     0.68184     0.31929     0.131118
H186     H     0.35416     0.31816     0.68071     0.131118
H187     H     0.96400     0.64584     0.31929     0.131119
H188     H     0.03600     0.35416     0.68071     0.131119
H189     H     0.68184     0.03600     0.31929     0.131119
H190     H     0.31816     0.96400     0.68071     0.131119
H191     H     0.35416     0.31816     0.31929     0.131118
H192     H     0.64584     0.68184     0.68071     0.131118
H193     H     0.37855     0.96829     0.21908     0.138436
H194     H     0.62145     0.03171     0.78092     0.138436
H195     H     0.03171     0.41026     0.21908     0.138435
H196     H     0.96829     0.58974     0.78092     0.138435
H197     H     0.58974     0.62145     0.21908     0.138436
H198     H     0.41026     0.37855     0.78092     0.138436
H199     H     0.62145     0.03171     0.21908     0.138436
H200     H     0.37855     0.96829     0.78092     0.138436
H201     H     0.96829     0.58974     0.21908     0.138435
H202     H     0.03171     0.41026     0.78092     0.138435
H203     H     0.41026     0.37855     0.21908     0.138436
H204     H     0.58974     0.62145     0.78092     0.138436
H205     H     0.96829     0.37855     0.28092     0.138436
H206     H     0.03171     0.62145     0.71908     0.138436
H207     H     0.41026     0.03171     0.28092     0.138436
H208     H     0.58974     0.96829     0.71908     0.138436
H209     H     0.62145     0.58974     0.28092     0.138435
H210     H     0.37855     0.41026     0.71908     0.138435
H211     H     0.03171     0.62145     0.28092     0.138436
H212     H     0.96829     0.37855     0.71908     0.138436
H213     H     0.58974     0.96829     0.28092     0.138436
H214     H     0.41026     0.03171     0.71908     0.138436
H215     H     0.37855     0.41026     0.28092     0.138435
H216     H     0.62145     0.58974     0.71908     0.138435
H217     H     0.58789     0.12353     0.22033     0.140645
H218     H     0.41211     0.87647     0.77967     0.140646
H219     H     0.87647     0.46436     0.22033     0.140645
H220     H     0.12353     0.53564     0.77967     0.140645
H221     H     0.53564     0.41211     0.22033     0.140646
H222     H     0.46436     0.58789     0.77967     0.140646
H223     H     0.41211     0.87647     0.22033     0.140646
H224     H     0.58789     0.12353     0.77967     0.140645
H225     H     0.12353     0.53564     0.22033     0.140645
H226     H     0.87647     0.46436     0.77967     0.140645
H227     H     0.46436     0.58789     0.22033     0.140646
H228     H     0.53564     0.41211     0.77967     0.140646
H229     H     0.12353     0.58789     0.27967     0.140646
H230     H     0.87647     0.41211     0.72033     0.140646
H231     H     0.46436     0.87647     0.27967     0.140646
H232     H     0.53564     0.12353     0.72033     0.140645
H233     H     0.41211     0.53564     0.27967     0.140645
H234     H     0.58789     0.46436     0.72033     0.140645
H235     H     0.87647     0.41211     0.27967     0.140646
H236     H     0.12353     0.58789     0.72033     0.140646
H237     H     0.53564     0.12353     0.27967     0.140645
H238     H     0.46436     0.87647     0.72033     0.140646
H239     H     0.58789     0.46436     0.27967     0.140645
H240     H     0.41211     0.53564     0.72033     0.140645
H241     H     0.56251     0.19266     0.18413     0.142728
H242     H     0.43749     0.80734     0.81587     0.142728
H243     H     0.80734     0.36985     0.18413     0.142728
H244     H     0.19266     0.63015     0.81587     0.142728
H245     H     0.63015     0.43749     0.18413     0.142728
H246     H     0.36985     0.56251     0.81587     0.142728
H247     H     0.43749     0.80734     0.18413     0.142728
H248     H     0.56251     0.19266     0.81587     0.142728
H249     H     0.19266     0.63015     0.18413     0.142728
H250     H     0.80734     0.36985     0.81587     0.142728
H251     H     0.36985     0.56251     0.18413     0.142728
H252     H     0.63015     0.43749     0.81587     0.142728
H253     H     0.19266     0.56251     0.31587     0.142728
H254     H     0.80734     0.43749     0.68413     0.142728
H255     H     0.36985     0.80734     0.31587     0.142728
H256     H     0.63015     0.19266     0.68413     0.142728
H257     H     0.43749     0.63015     0.31587     0.142728
H258     H     0.56251     0.36985     0.68413     0.142728
H259     H     0.80734     0.43749     0.31587     0.142728
H260     H     0.19266     0.56251     0.68413     0.142728
H261     H     0.63015     0.19266     0.31587     0.142728
H262     H     0.36985     0.80734     0.68413     0.142728
H263     H     0.56251     0.36985     0.31587     0.142728
H264     H     0.43749     0.63015     0.68413     0.142728
H265     H     0.44426     0.66433     0.56259     0.149849
H266     H     0.55574     0.33567     0.43741     0.149849
H267     H     0.33567     0.77993     0.56259     0.149849
H268     H     0.66433     0.22007     0.43741     0.149849
H269     H     0.22007     0.55574     0.56259     0.14985
H270     H     0.77993     0.44426     0.43741     0.14985
H271     H     0.55574     0.33567     0.56259     0.149849
H272     H     0.44426     0.66433     0.43741     0.149849
H273     H     0.66433     0.22007     0.56259     0.149849
H274     H     0.33567     0.77993     0.43741     0.149849
H275     H     0.77993     0.44426     0.56259     0.14985
H276     H     0.22007     0.55574     0.43741     0.14985
H277     H     0.66433     0.44426     0.93741     0.14985
H278     H     0.33567     0.55574     0.06259     0.149849
H279     H     0.77993     0.33567     0.93741     0.149849
H280     H     0.22007     0.66433     0.06259     0.149849
H281     H     0.55574     0.22007     0.93741     0.149849
H282     H     0.44426     0.77993     0.06259     0.149849
H283     H     0.33567     0.55574     0.93741     0.149849
H284     H     0.66433     0.44426     0.06259     0.14985
H285     H     0.22007     0.66433     0.93741     0.149849
H286     H     0.77993     0.33567     0.06259     0.149849
H287     H     0.44426     0.77993     0.93741     0.149849
H288     H     0.55574     0.22007     0.06259     0.149849
H289     H     0.33333     0.66667     0.56152     0.13289
H290     H     0.66667     0.33333     0.43848     0.13289
H291     H     0.66667     0.33333     0.56152     0.13289
H292     H     0.33333     0.66667     0.43848     0.13289
H293     H     0.66667     0.33333     0.93848     0.13289
H294     H     0.33333     0.66667     0.06152     0.13289
H295     H     0.33333     0.66667     0.93848     0.13289
H296     H     0.66667     0.33333     0.06152     0.13289
C1     C     0.34701     0.29988     0.09874     0.015329
C2     C     0.65299     0.70012     0.90126     0.015328
C3     C     0.70012     0.04713     0.09874     0.01533
C4     C     0.29988     0.95287     0.90126     0.01533
C5     C     0.95287     0.65299     0.09874     0.015328
C6     C     0.04713     0.34701     0.90126     0.015328
C7     C     0.65299     0.70012     0.09874     0.015328
C8     C     0.34701     0.29988     0.90126     0.015329
C9     C     0.29988     0.95287     0.09874     0.01533
C10     C     0.70012     0.04713     0.90126     0.01533
C11     C     0.04713     0.34701     0.09874     0.015328
C12     C     0.95287     0.65299     0.90126     0.015328
C13     C     0.29988     0.34701     0.40126     0.015328
C14     C     0.70012     0.65299     0.59874     0.015328
C15     C     0.04713     0.70012     0.40126     0.015328
C16     C     0.95287     0.29988     0.59874     0.015329
C17     C     0.65299     0.95287     0.40126     0.01533
C18     C     0.34701     0.04713     0.59874     0.01533
C19     C     0.70012     0.65299     0.40126     0.015328
C20     C     0.29988     0.34701     0.59874     0.015328
C21     C     0.95287     0.29988     0.40126     0.015329
C22     C     0.04713     0.70012     0.59874     0.015328
C23     C     0.34701     0.04713     0.40126     0.01533
C24     C     0.65299     0.95287     0.59874     0.01533
C25     C     0.46985     0.24578     0.11368     -0.137824
C26     C     0.53015     0.75422     0.88632     -0.137824
C27     C     0.75422     0.22407     0.11368     -0.137821
C28     C     0.24578     0.77593     0.88632     -0.137821
C29     C     0.77593     0.53015     0.11368     -0.137821
C30     C     0.22407     0.46985     0.88632     -0.137822
C31     C     0.53015     0.75422     0.11368     -0.137824
C32     C     0.46985     0.24578     0.88632     -0.137824
C33     C     0.24578     0.77593     0.11368     -0.137821
C34     C     0.75422     0.22407     0.88632     -0.137821
C35     C     0.22407     0.46985     0.11368     -0.137822
C36     C     0.77593     0.53015     0.88632     -0.137821
C37     C     0.24578     0.46985     0.38632     -0.137822
C38     C     0.75422     0.53015     0.61368     -0.137821
C39     C     0.22407     0.75422     0.38632     -0.137824
C40     C     0.77593     0.24578     0.61368     -0.137824
C41     C     0.53015     0.77593     0.38632     -0.137821
C42     C     0.46985     0.22407     0.61368     -0.137821
C43     C     0.75422     0.53015     0.38632     -0.137821
C44     C     0.24578     0.46985     0.61368     -0.137822
C45     C     0.77593     0.24578     0.38632     -0.137824
C46     C     0.22407     0.75422     0.61368     -0.137824
C47     C     0.46985     0.22407     0.38632     -0.137821
C48     C     0.53015     0.77593     0.61368     -0.137821
C49     C     0.48345     0.20225     0.13224     0.100549
C50     C     0.51655     0.79775     0.86776     0.10055
C51     C     0.79775     0.28120     0.13224     0.100547
C52     C     0.20225     0.71880     0.86776     0.100546
C53     C     0.71880     0.51655     0.13224     0.100549
C54     C     0.28120     0.48345     0.86776     0.100548
C55     C     0.51655     0.79775     0.13224     0.10055
C56     C     0.48345     0.20225     0.86776     0.100549
C57     C     0.20225     0.71880     0.13224     0.100546
C58     C     0.79775     0.28120     0.86776     0.100547
C59     C     0.28120     0.48345     0.13224     0.100548
C60     C     0.71880     0.51655     0.86776     0.100549
C61     C     0.20225     0.48345     0.36776     0.100548
C62     C     0.79775     0.51655     0.63224     0.100549
C63     C     0.28120     0.79775     0.36776     0.10055
C64     C     0.71880     0.20225     0.63224     0.100549
C65     C     0.51655     0.71880     0.36776     0.100546
C66     C     0.48345     0.28120     0.63224     0.100547
C67     C     0.79775     0.51655     0.36776     0.100549
C68     C     0.20225     0.48345     0.63224     0.100548
C69     C     0.71880     0.20225     0.36776     0.100549
C70     C     0.28120     0.79775     0.63224     0.10055
C71     C     0.48345     0.28120     0.36776     0.100547
C72     C     0.51655     0.71880     0.63224     0.100546
C73     C     0.44026     0.16359     0.15850     -0.065939
C74     C     0.55974     0.83641     0.84150     -0.065939
C75     C     0.83641     0.27667     0.15850     -0.065936
C76     C     0.16359     0.72333     0.84150     -0.065936
C77     C     0.72333     0.55974     0.15850     -0.065937
C78     C     0.27667     0.44026     0.84150     -0.065937
C79     C     0.55974     0.83641     0.15850     -0.065939
C80     C     0.44026     0.16359     0.84150     -0.065939
C81     C     0.16359     0.72333     0.15850     -0.065936
C82     C     0.83641     0.27667     0.84150     -0.065936
C83     C     0.27667     0.44026     0.15850     -0.065937
C84     C     0.72333     0.55974     0.84150     -0.065937
C85     C     0.16359     0.44026     0.34150     -0.065937
C86     C     0.83641     0.55974     0.65850     -0.065937
C87     C     0.27667     0.83641     0.34150     -0.065939
C88     C     0.72333     0.16359     0.65850     -0.065939
C89     C     0.55974     0.72333     0.34150     -0.065936
C90     C     0.44026     0.27667     0.65850     -0.065936
C91     C     0.83641     0.55974     0.34150     -0.065937
C92     C     0.16359     0.44026     0.65850     -0.065937
C93     C     0.72333     0.16359     0.34150     -0.065939
C94     C     0.27667     0.83641     0.65850     -0.065939
C95     C     0.44026     0.27667     0.34150     -0.065936
C96     C     0.55974     0.72333     0.65850     -0.065936
C97     C     0.38280     0.16864     0.16519     -0.092686
C98     C     0.61720     0.83136     0.83481     -0.092686
C99     C     0.83136     0.21416     0.16519     -0.092688
C100     C     0.16864     0.78584     0.83481     -0.092687
C101     C     0.78584     0.61720     0.16519     -0.092687
C102     C     0.21416     0.38280     0.83481     -0.092688
C103     C     0.61720     0.83136     0.16519     -0.092686
C104     C     0.38280     0.16864     0.83481     -0.092686
C105     C     0.16864     0.78584     0.16519     -0.092687
C106     C     0.83136     0.21416     0.83481     -0.092688
C107     C     0.21416     0.38280     0.16519     -0.092688
C108     C     0.78584     0.61720     0.83481     -0.092687
C109     C     0.16864     0.38280     0.33481     -0.092687
C110     C     0.83136     0.61720     0.66519     -0.092687
C111     C     0.21416     0.83136     0.33481     -0.092686
C112     C     0.78584     0.16864     0.66519     -0.092686
C113     C     0.61720     0.78584     0.33481     -0.092687
C114     C     0.38280     0.21416     0.66519     -0.092688
C115     C     0.83136     0.61720     0.33481     -0.092687
C116     C     0.16864     0.38280     0.66519     -0.092687
C117     C     0.78584     0.16864     0.33481     -0.092686
C118     C     0.21416     0.83136     0.66519     -0.092686
C119     C     0.38280     0.21416     0.33481     -0.092688
C120     C     0.61720     0.78584     0.66519     -0.092687
C121     C     0.36908     0.21181     0.14640     -0.164628
C122     C     0.63092     0.78819     0.85360     -0.164628
C123     C     0.78819     0.15727     0.14640     -0.164627
C124     C     0.21181     0.84273     0.85360     -0.164628
C125     C     0.84273     0.63092     0.14640     -0.164628
C126     C     0.15727     0.36908     0.85360     -0.164628
C127     C     0.63092     0.78819     0.14640     -0.164628
C128     C     0.36908     0.21181     0.85360     -0.164628
C129     C     0.21181     0.84273     0.14640     -0.164628
C130     C     0.78819     0.15727     0.85360     -0.164627
C131     C     0.15727     0.36908     0.14640     -0.164628
C132     C     0.84273     0.63092     0.85360     -0.164628
C133     C     0.21181     0.36908     0.35360     -0.164628
C134     C     0.78819     0.63092     0.64640     -0.164628
C135     C     0.15727     0.78819     0.35360     -0.164628
C136     C     0.84273     0.21181     0.64640     -0.164628
C137     C     0.63092     0.84273     0.35360     -0.164628
C138     C     0.36908     0.15727     0.64640     -0.164627
C139     C     0.78819     0.63092     0.35360     -0.164628
C140     C     0.21181     0.36908     0.64640     -0.164628
C141     C     0.84273     0.21181     0.35360     -0.164628
C142     C     0.15727     0.78819     0.64640     -0.164628
C143     C     0.36908     0.15727     0.35360     -0.164627
C144     C     0.63092     0.84273     0.64640     -0.164628
C145     C     0.41264     0.25072     0.12034     0.031766
C146     C     0.58736     0.74928     0.87966     0.031764
C147     C     0.74928     0.16192     0.12034     0.031766
C148     C     0.25072     0.83808     0.87966     0.031765
C149     C     0.83808     0.58736     0.12034     0.031764
C150     C     0.16192     0.41264     0.87966     0.031765
C151     C     0.58736     0.74928     0.12034     0.031764
C152     C     0.41264     0.25072     0.87966     0.031766
C153     C     0.25072     0.83808     0.12034     0.031765
C154     C     0.74928     0.16192     0.87966     0.031766
C155     C     0.16192     0.41264     0.12034     0.031765
C156     C     0.83808     0.58736     0.87966     0.031764
C157     C     0.25072     0.41264     0.37966     0.031765
C158     C     0.74928     0.58736     0.62034     0.031764
C159     C     0.16192     0.74928     0.37966     0.031764
C160     C     0.83808     0.25072     0.62034     0.031766
C161     C     0.58736     0.83808     0.37966     0.031765
C162     C     0.41264     0.16192     0.62034     0.031766
C163     C     0.74928     0.58736     0.37966     0.031764
C164     C     0.25072     0.41264     0.62034     0.031765
C165     C     0.83808     0.25072     0.37966     0.031766
C166     C     0.16192     0.74928     0.62034     0.031764
C167     C     0.41264     0.16192     0.37966     0.031766
C168     C     0.58736     0.83808     0.62034     0.031765
C169     C     0.28271     0.35030     0.07327     0.113911
C170     C     0.71729     0.64970     0.92673     0.113913
C171     C     0.64970     0.93241     0.07327     0.113916
C172     C     0.35030     0.06759     0.92673     0.113917
C173     C     0.06759     0.71729     0.07327     0.113912
C174     C     0.93241     0.28271     0.92673     0.113913
C175     C     0.71729     0.64970     0.07327     0.113913
C176     C     0.28271     0.35030     0.92673     0.113911
C177     C     0.35030     0.06759     0.07327     0.113917
C178     C     0.64970     0.93241     0.92673     0.113916
C179     C     0.93241     0.28271     0.07327     0.113913
C180     C     0.06759     0.71729     0.92673     0.113912
C181     C     0.35030     0.28271     0.42673     0.113913
C182     C     0.64970     0.71729     0.57327     0.113912
C183     C     0.93241     0.64970     0.42673     0.113913
C184     C     0.06759     0.35030     0.57327     0.113911
C185     C     0.71729     0.06759     0.42673     0.113917
C186     C     0.28271     0.93241     0.57327     0.113916
C187     C     0.64970     0.71729     0.42673     0.113912
C188     C     0.35030     0.28271     0.57327     0.113913
C189     C     0.06759     0.35030     0.42673     0.113911
C190     C     0.93241     0.64970     0.57327     0.113913
C191     C     0.28271     0.93241     0.42673     0.113916
C192     C     0.71729     0.06759     0.57327     0.113917
C193     C     0.27972     0.39872     0.05318     -0.159434
C194     C     0.72028     0.60128     0.94682     -0.159436
C195     C     0.60128     0.88100     0.05318     -0.159438
C196     C     0.39872     0.11900     0.94682     -0.15944
C197     C     0.11900     0.72028     0.05318     -0.159436
C198     C     0.88100     0.27972     0.94682     -0.159435
C199     C     0.72028     0.60128     0.05318     -0.159436
C200     C     0.27972     0.39872     0.94682     -0.159434
C201     C     0.39872     0.11900     0.05318     -0.15944
C202     C     0.60128     0.88100     0.94682     -0.159438
C203     C     0.88100     0.27972     0.05318     -0.159435
C204     C     0.11900     0.72028     0.94682     -0.159436
C205     C     0.39872     0.27972     0.44682     -0.159435
C206     C     0.60128     0.72028     0.55318     -0.159436
C207     C     0.88100     0.60128     0.44682     -0.159436
C208     C     0.11900     0.39872     0.55318     -0.159434
C209     C     0.72028     0.11900     0.44682     -0.15944
C210     C     0.27972     0.88100     0.55318     -0.159438
C211     C     0.60128     0.72028     0.44682     -0.159436
C212     C     0.39872     0.27972     0.55318     -0.159435
C213     C     0.11900     0.39872     0.44682     -0.159434
C214     C     0.88100     0.60128     0.55318     -0.159436
C215     C     0.27972     0.88100     0.44682     -0.159438
C216     C     0.72028     0.11900     0.55318     -0.15944
C217     C     0.33782     0.44882     0.03740     0.005673
C218     C     0.66218     0.55118     0.96260     0.005675
C219     C     0.55118     0.88900     0.03740     0.005674
C220     C     0.44882     0.11100     0.96260     0.005675
C221     C     0.11100     0.66218     0.03740     0.005675
C222     C     0.88900     0.33782     0.96260     0.005674
C223     C     0.66218     0.55118     0.03740     0.005675
C224     C     0.33782     0.44882     0.96260     0.005673
C225     C     0.44882     0.11100     0.03740     0.005675
C226     C     0.55118     0.88900     0.96260     0.005674
C227     C     0.88900     0.33782     0.03740     0.005674
C228     C     0.11100     0.66218     0.96260     0.005675
C229     C     0.44882     0.33782     0.46260     0.005674
C230     C     0.55118     0.66218     0.53740     0.005676
C231     C     0.88900     0.55118     0.46260     0.005674
C232     C     0.11100     0.44882     0.53740     0.005673
C233     C     0.66218     0.11100     0.46260     0.005675
C234     C     0.33782     0.88900     0.53740     0.005674
C235     C     0.55118     0.66218     0.46260     0.005676
C236     C     0.44882     0.33782     0.53740     0.005674
C237     C     0.11100     0.44882     0.46260     0.005673
C238     C     0.88900     0.55118     0.53740     0.005674
C239     C     0.33782     0.88900     0.46260     0.005674
C240     C     0.66218     0.11100     0.53740     0.005675
C241     C     0.39911     0.45070     0.04211     -0.140293
C242     C     0.60089     0.54930     0.95789     -0.140294
C243     C     0.54930     0.94841     0.04211     -0.140293
C244     C     0.45070     0.05159     0.95789     -0.140293
C245     C     0.05159     0.60089     0.04211     -0.140293
C246     C     0.94841     0.39911     0.95789     -0.140293
C247     C     0.60089     0.54930     0.04211     -0.140294
C248     C     0.39911     0.45070     0.95789     -0.140293
C249     C     0.45070     0.05159     0.04211     -0.140293
C250     C     0.54930     0.94841     0.95789     -0.140293
C251     C     0.94841     0.39911     0.04211     -0.140293
C252     C     0.05159     0.60089     0.95789     -0.140293
C253     C     0.45070     0.39911     0.45789     -0.140293
C254     C     0.54930     0.60089     0.54211     -0.140293
C255     C     0.94841     0.54930     0.45789     -0.140294
C256     C     0.05159     0.45070     0.54211     -0.140293
C257     C     0.60089     0.05159     0.45789     -0.140293
C258     C     0.39911     0.94841     0.54211     -0.140293
C259     C     0.54930     0.60089     0.45789     -0.140293
C260     C     0.45070     0.39911     0.54211     -0.140293
C261     C     0.05159     0.45070     0.45789     -0.140293
C262     C     0.94841     0.54930     0.54211     -0.140294
C263     C     0.39911     0.94841     0.45789     -0.140293
C264     C     0.60089     0.05159     0.54211     -0.140293
C265     C     0.40231     0.40217     0.06188     -0.054646
C266     C     0.59769     0.59783     0.93812     -0.054645
C267     C     0.59783     0.00014     0.06188     -0.054646
C268     C     0.40217     0.99986     0.93812     -0.054646
C269     C     0.99986     0.59769     0.06188     -0.054646
C270     C     0.00014     0.40231     0.93812     -0.054646
C271     C     0.59769     0.59783     0.06188     -0.054645
C272     C     0.40231     0.40217     0.93812     -0.054646
C273     C     0.40217     0.99986     0.06188     -0.054646
C274     C     0.59783     0.00014     0.93812     -0.054646
C275     C     0.00014     0.40231     0.06188     -0.054646
C276     C     0.99986     0.59769     0.93812     -0.054646
C277     C     0.40217     0.40231     0.43812     -0.054646
C278     C     0.59783     0.59769     0.56188     -0.054646
C279     C     0.00014     0.59783     0.43812     -0.054645
C280     C     0.99986     0.40217     0.56188     -0.054646
C281     C     0.59769     0.99986     0.43812     -0.054646
C282     C     0.40231     0.00014     0.56188     -0.054646
C283     C     0.59783     0.59769     0.43812     -0.054646
C284     C     0.40217     0.40231     0.56188     -0.054646
C285     C     0.99986     0.40217     0.43812     -0.054646
C286     C     0.00014     0.59783     0.56188     -0.054645
C287     C     0.40231     0.00014     0.43812     -0.054646
C288     C     0.59769     0.99986     0.56188     -0.054646
C289     C     0.34410     0.35138     0.07767     -0.097936
C290     C     0.65590     0.64862     0.92233     -0.09794
C291     C     0.64862     0.99272     0.07767     -0.097941
C292     C     0.35138     0.00728     0.92233     -0.09794
C293     C     0.00728     0.65590     0.07767     -0.097938
C294     C     0.99272     0.34410     0.92233     -0.097938
C295     C     0.65590     0.64862     0.07767     -0.09794
C296     C     0.34410     0.35138     0.92233     -0.097936
C297     C     0.35138     0.00728     0.07767     -0.09794
C298     C     0.64862     0.99272     0.92233     -0.097941
C299     C     0.99272     0.34410     0.07767     -0.097938
C300     C     0.00728     0.65590     0.92233     -0.097938
C301     C     0.35138     0.34410     0.42233     -0.097938
C302     C     0.64862     0.65590     0.57767     -0.097938
C303     C     0.99272     0.64862     0.42233     -0.09794
C304     C     0.00728     0.35138     0.57767     -0.097936
C305     C     0.65590     0.00728     0.42233     -0.09794
C306     C     0.34410     0.99272     0.57767     -0.097941
C307     C     0.64862     0.65590     0.42233     -0.097938
C308     C     0.35138     0.34410     0.57767     -0.097938
C309     C     0.00728     0.35138     0.42233     -0.097936
C310     C     0.99272     0.64862     0.57767     -0.09794
C311     C     0.34410     0.99272     0.42233     -0.097941
C312     C     0.65590     0.00728     0.57767     -0.09794
C313     C     0.33333     0.60624     0.01779     -0.0663
C314     C     0.66667     0.39376     0.98221     -0.0663
C315     C     0.39376     0.72709     0.01779     -0.0663
C316     C     0.60624     0.27291     0.98221     -0.066299
C317     C     0.27291     0.66667     0.01779     -0.066299
C318     C     0.72709     0.33333     0.98221     -0.066299
C319     C     0.66667     0.39376     0.01779     -0.0663
C320     C     0.33333     0.60624     0.98221     -0.0663
C321     C     0.60624     0.27291     0.01779     -0.066299
C322     C     0.39376     0.72709     0.98221     -0.0663
C323     C     0.72709     0.33333     0.01779     -0.066299
C324     C     0.27291     0.66667     0.98221     -0.066299
C325     C     0.60624     0.33333     0.48221     -0.066301
C326     C     0.39376     0.66667     0.51779     -0.066301
C327     C     0.72709     0.39376     0.48221     -0.0663
C328     C     0.27291     0.60624     0.51779     -0.066299
C329     C     0.66667     0.27291     0.48221     -0.066299
C330     C     0.33333     0.72709     0.51779     -0.066299
C331     C     0.39376     0.66667     0.48221     -0.066301
C332     C     0.60624     0.33333     0.51779     -0.066301
C333     C     0.27291     0.60624     0.48221     -0.066299
C334     C     0.72709     0.39376     0.51779     -0.0663
C335     C     0.33333     0.72709     0.48221     -0.066299
C336     C     0.66667     0.27291     0.51779     -0.066299
C337     C     0.33557     0.50209     0.01785     -0.031413
C338     C     0.66443     0.49791     0.98215     -0.031412
C339     C     0.49791     0.83348     0.01785     -0.031413
C340     C     0.50209     0.16652     0.98215     -0.031413
C341     C     0.16652     0.66443     0.01785     -0.031411
C342     C     0.83348     0.33557     0.98215     -0.031411
C343     C     0.66443     0.49791     0.01785     -0.031412
C344     C     0.33557     0.50209     0.98215     -0.031413
C345     C     0.50209     0.16652     0.01785     -0.031413
C346     C     0.49791     0.83348     0.98215     -0.031413
C347     C     0.83348     0.33557     0.01785     -0.031411
C348     C     0.16652     0.66443     0.98215     -0.031411
C349     C     0.50209     0.33557     0.48215     -0.031412
C350     C     0.49791     0.66443     0.51785     -0.031412
C351     C     0.83348     0.49791     0.48215     -0.031412
C352     C     0.16652     0.50209     0.51785     -0.031413
C353     C     0.66443     0.16652     0.48215     -0.031412
C354     C     0.33557     0.83348     0.51785     -0.031413
C355     C     0.49791     0.66443     0.48215     -0.031412
C356     C     0.50209     0.33557     0.51785     -0.031412
C357     C     0.16652     0.50209     0.48215     -0.031413
C358     C     0.83348     0.49791     0.51785     -0.031412
C359     C     0.33557     0.83348     0.48215     -0.031413
C360     C     0.66443     0.16652     0.51785     -0.031412
C361     C     0.40499     0.05632     0.19006     -0.117902
C362     C     0.59501     0.94368     0.80994     -0.117901
C363     C     0.94368     0.34867     0.19006     -0.117901
C364     C     0.05632     0.65133     0.80994     -0.1179
C365     C     0.65133     0.59501     0.19006     -0.117902
C366     C     0.34867     0.40499     0.80994     -0.117901
C367     C     0.59501     0.94368     0.19006     -0.117901
C368     C     0.40499     0.05632     0.80994     -0.117902
C369     C     0.05632     0.65133     0.19006     -0.1179
C370     C     0.94368     0.34867     0.80994     -0.117901
C371     C     0.34867     0.40499     0.19006     -0.117901
C372     C     0.65133     0.59501     0.80994     -0.117902
C373     C     0.05632     0.40499     0.30994     -0.117902
C374     C     0.94368     0.59501     0.69006     -0.117902
C375     C     0.34867     0.94368     0.30994     -0.117901
C376     C     0.65133     0.05632     0.69006     -0.117902
C377     C     0.59501     0.65133     0.30994     -0.1179
C378     C     0.40499     0.34867     0.69006     -0.117901
C379     C     0.94368     0.59501     0.30994     -0.117902
C380     C     0.05632     0.40499     0.69006     -0.117902
C381     C     0.65133     0.05632     0.30994     -0.117902
C382     C     0.34867     0.94368     0.69006     -0.117901
C383     C     0.40499     0.34867     0.30994     -0.117901
C384     C     0.59501     0.65133     0.69006     -0.1179
C385     C     0.41902     0.01778     0.21229     -0.119334
C386     C     0.58098     0.98222     0.78771     -0.119335
C387     C     0.98222     0.40124     0.21229     -0.119334
C388     C     0.01778     0.59876     0.78771     -0.119334
C389     C     0.59876     0.58098     0.21229     -0.119335
C390     C     0.40124     0.41902     0.78771     -0.119335
C391     C     0.58098     0.98222     0.21229     -0.119335
C392     C     0.41902     0.01778     0.78771     -0.119334
C393     C     0.01778     0.59876     0.21229     -0.119334
C394     C     0.98222     0.40124     0.78771     -0.119334
C395     C     0.40124     0.41902     0.21229     -0.119335
C396     C     0.59876     0.58098     0.78771     -0.119335
C397     C     0.01778     0.41902     0.28771     -0.119335
C398     C     0.98222     0.58098     0.71229     -0.119335
C399     C     0.40124     0.98222     0.28771     -0.119335
C400     C     0.59876     0.01778     0.71229     -0.119334
C401     C     0.58098     0.59876     0.28771     -0.119334
C402     C     0.41902     0.40124     0.71229     -0.119333
C403     C     0.98222     0.58098     0.28771     -0.119335
C404     C     0.01778     0.41902     0.71229     -0.119335
C405     C     0.59876     0.01778     0.28771     -0.119334
C406     C     0.40124     0.98222     0.71229     -0.119335
C407     C     0.41902     0.40124     0.28771     -0.119333
C408     C     0.58098     0.59876     0.71229     -0.119334
C409     C     0.48416     0.04292     0.22580     -0.062569
C410     C     0.51584     0.95708     0.77420     -0.06257
C411     C     0.95708     0.44124     0.22580     -0.06257
C412     C     0.04292     0.55876     0.77420     -0.062569
C413     C     0.55876     0.51584     0.22580     -0.06257
C414     C     0.44124     0.48416     0.77420     -0.06257
C415     C     0.51584     0.95708     0.22580     -0.06257
C416     C     0.48416     0.04292     0.77420     -0.062569
C417     C     0.04292     0.55876     0.22580     -0.062569
C418     C     0.95708     0.44124     0.77420     -0.06257
C419     C     0.44124     0.48416     0.22580     -0.06257
C420     C     0.55876     0.51584     0.77420     -0.06257
C421     C     0.04292     0.48416     0.27420     -0.06257
C422     C     0.95708     0.51584     0.72580     -0.062571
C423     C     0.44124     0.95708     0.27420     -0.06257
C424     C     0.55876     0.04292     0.72580     -0.062569
C425     C     0.51584     0.55876     0.27420     -0.06257
C426     C     0.48416     0.44124     0.72580     -0.06257
C427     C     0.95708     0.51584     0.27420     -0.062571
C428     C     0.04292     0.48416     0.72580     -0.06257
C429     C     0.55876     0.04292     0.27420     -0.062569
C430     C     0.44124     0.95708     0.72580     -0.06257
C431     C     0.48416     0.44124     0.27420     -0.06257
C432     C     0.51584     0.55876     0.72580     -0.06257
C433     C     0.53607     0.10454     0.21304     -0.117855
C434     C     0.46393     0.89546     0.78696     -0.117855
C435     C     0.89546     0.43153     0.21304     -0.117855
C436     C     0.10454     0.56847     0.78696     -0.117856
C437     C     0.56847     0.46393     0.21304     -0.117854
C438     C     0.43153     0.53607     0.78696     -0.117854
C439     C     0.46393     0.89546     0.21304     -0.117855
C440     C     0.53607     0.10454     0.78696     -0.117855
C441     C     0.10454     0.56847     0.21304     -0.117856
C442     C     0.89546     0.43153     0.78696     -0.117855
C443     C     0.43153     0.53607     0.21304     -0.117854
C444     C     0.56847     0.46393     0.78696     -0.117854
C445     C     0.10454     0.53607     0.28696     -0.117854
C446     C     0.89546     0.46393     0.71304     -0.117855
C447     C     0.43153     0.89546     0.28696     -0.117855
C448     C     0.56847     0.10454     0.71304     -0.117855
C449     C     0.46393     0.56847     0.28696     -0.117855
C450     C     0.53607     0.43153     0.71304     -0.117856
C451     C     0.89546     0.46393     0.28696     -0.117855
C452     C     0.10454     0.53607     0.71304     -0.117854
C453     C     0.56847     0.10454     0.28696     -0.117855
C454     C     0.43153     0.89546     0.71304     -0.117855
C455     C     0.53607     0.43153     0.28696     -0.117856
C456     C     0.46393     0.56847     0.71304     -0.117855
C457     C     0.52187     0.14359     0.19139     -0.106955
C458     C     0.47813     0.85641     0.80861     -0.106955
C459     C     0.85641     0.37828     0.19139     -0.106954
C460     C     0.14359     0.62172     0.80861     -0.106954
C461     C     0.62172     0.47813     0.19139     -0.106955
C462     C     0.37828     0.52187     0.80861     -0.106956
C463     C     0.47813     0.85641     0.19139     -0.106955
C464     C     0.52187     0.14359     0.80861     -0.106955
C465     C     0.14359     0.62172     0.19139     -0.106954
C466     C     0.85641     0.37828     0.80861     -0.106954
C467     C     0.37828     0.52187     0.19139     -0.106956
C468     C     0.62172     0.47813     0.80861     -0.106955
C469     C     0.14359     0.52187     0.30861     -0.106956
C470     C     0.85641     0.47813     0.69139     -0.106955
C471     C     0.37828     0.85641     0.30861     -0.106955
C472     C     0.62172     0.14359     0.69139     -0.106955
C473     C     0.47813     0.62172     0.30861     -0.106954
C474     C     0.52187     0.37828     0.69139     -0.106954
C475     C     0.85641     0.47813     0.30861     -0.106955
C476     C     0.14359     0.52187     0.69139     -0.106956
C477     C     0.62172     0.14359     0.30861     -0.106955
C478     C     0.37828     0.85641     0.69139     -0.106955
C479     C     0.52187     0.37828     0.30861     -0.106954
C480     C     0.47813     0.62172     0.69139     -0.106954
C481     C     0.45601     0.12034     0.17998     -0.03796
C482     C     0.54399     0.87966     0.82002     -0.037959
C483     C     0.87966     0.33567     0.17998     -0.037959
C484     C     0.12034     0.66433     0.82002     -0.037959
C485     C     0.66433     0.54399     0.17998     -0.037958
C486     C     0.33567     0.45601     0.82002     -0.037958
C487     C     0.54399     0.87966     0.17998     -0.037959
C488     C     0.45601     0.12034     0.82002     -0.03796
C489     C     0.12034     0.66433     0.17998     -0.037959
C490     C     0.87966     0.33567     0.82002     -0.037959
C491     C     0.33567     0.45601     0.17998     -0.037958
C492     C     0.66433     0.54399     0.82002     -0.037958
C493     C     0.12034     0.45601     0.32002     -0.037957
C494     C     0.87966     0.54399     0.67998     -0.037958
C495     C     0.33567     0.87966     0.32002     -0.037959
C496     C     0.66433     0.12034     0.67998     -0.03796
C497     C     0.54399     0.66433     0.32002     -0.037959
C498     C     0.45601     0.33567     0.67998     -0.037959
C499     C     0.87966     0.54399     0.32002     -0.037958
C500     C     0.12034     0.45601     0.67998     -0.037957
C501     C     0.66433     0.12034     0.32002     -0.03796
C502     C     0.33567     0.87966     0.67998     -0.037959
C503     C     0.45601     0.33567     0.32002     -0.037959
C504     C     0.54399     0.66433     0.67998     -0.037959
C505     C     0.44542     0.66540     0.53548     -0.096734
C506     C     0.55458     0.33460     0.46452     -0.096735
C507     C     0.33460     0.78002     0.53548     -0.096734
C508     C     0.66540     0.21998     0.46452     -0.096734
C509     C     0.21998     0.55458     0.53548     -0.096735
C510     C     0.78002     0.44542     0.46452     -0.096735
C511     C     0.55458     0.33460     0.53548     -0.096735
C512     C     0.44542     0.66540     0.46452     -0.096734
C513     C     0.66540     0.21998     0.53548     -0.096734
C514     C     0.33460     0.78002     0.46452     -0.096734
C515     C     0.78002     0.44542     0.53548     -0.096735
C516     C     0.21998     0.55458     0.46452     -0.096735
C517     C     0.66540     0.44542     0.96452     -0.096735
C518     C     0.33460     0.55458     0.03548     -0.096735
C519     C     0.78002     0.33460     0.96452     -0.096735
C520     C     0.21998     0.66540     0.03548     -0.096735
C521     C     0.55458     0.21998     0.96452     -0.096734
C522     C     0.44542     0.78002     0.03548     -0.096734
C523     C     0.33460     0.55458     0.96452     -0.096735
C524     C     0.66540     0.44542     0.03548     -0.096735
C525     C     0.21998     0.66540     0.96452     -0.096735
C526     C     0.78002     0.33460     0.03548     -0.096735
C527     C     0.44542     0.78002     0.96452     -0.096734
C528     C     0.55458     0.21998     0.03548     -0.096734
C529     C     0.00000     0.50000     0.25000     0.118397
C530     C     0.00000     0.50000     0.75000     0.118397
C531     C     0.50000     0.50000     0.25000     0.118397
C532     C     0.50000     0.50000     0.75000     0.118397
C533     C     0.50000     0.00000     0.25000     0.118396
C534     C     0.50000     0.00000     0.75000     0.118396
C535     C     0.33333     0.66667     0.53358     0.016172
C536     C     0.66667     0.33333     0.46642     0.016172
C537     C     0.66667     0.33333     0.53358     0.016172
C538     C     0.33333     0.66667     0.46642     0.016172
C539     C     0.66667     0.33333     0.96642     0.016172
C540     C     0.33333     0.66667     0.03358     0.016172
C541     C     0.33333     0.66667     0.96642     0.016172
C542     C     0.66667     0.33333     0.03358     0.016172
N1     N     0.40221     0.29735     0.10080     -0.186104
N2     N     0.59779     0.70265     0.89920     -0.186101
N3     N     0.70265     0.10486     0.10080     -0.186104
N4     N     0.29735     0.89514     0.89920     -0.186103
N5     N     0.89514     0.59779     0.10080     -0.186104
N6     N     0.10486     0.40221     0.89920     -0.186104
N7     N     0.59779     0.70265     0.10080     -0.186101
N8     N     0.40221     0.29735     0.89920     -0.186104
N9     N     0.29735     0.89514     0.10080     -0.186103
N10     N     0.70265     0.10486     0.89920     -0.186104
N11     N     0.10486     0.40221     0.10080     -0.186104
N12     N     0.89514     0.59779     0.89920     -0.186104
N13     N     0.29735     0.40221     0.39920     -0.186104
N14     N     0.70265     0.59779     0.60080     -0.186104
N15     N     0.10486     0.70265     0.39920     -0.186101
N16     N     0.89514     0.29735     0.60080     -0.186104
N17     N     0.59779     0.89514     0.39920     -0.186103
N18     N     0.40221     0.10486     0.60080     -0.186104
N19     N     0.70265     0.59779     0.39920     -0.186104
N20     N     0.29735     0.40221     0.60080     -0.186104
N21     N     0.89514     0.29735     0.39920     -0.186104
N22     N     0.10486     0.70265     0.60080     -0.186101
N23     N     0.40221     0.10486     0.39920     -0.186104
N24     N     0.59779     0.89514     0.60080     -0.186103
F1     F     0.53832     0.19736     0.12425     -0.099927
F2     F     0.46168     0.80264     0.87575     -0.099927
F3     F     0.80264     0.34096     0.12425     -0.099931
F4     F     0.19736     0.65904     0.87575     -0.099931
F5     F     0.65904     0.46168     0.12425     -0.099931
F6     F     0.34096     0.53832     0.87575     -0.09993
F7     F     0.46168     0.80264     0.12425     -0.099927
F8     F     0.53832     0.19736     0.87575     -0.099927
F9     F     0.19736     0.65904     0.12425     -0.099931
F10     F     0.80264     0.34096     0.87575     -0.099931
F11     F     0.34096     0.53832     0.12425     -0.09993
F12     F     0.65904     0.46168     0.87575     -0.099931
F13     F     0.19736     0.53832     0.37575     -0.09993
F14     F     0.80264     0.46168     0.62425     -0.099931
F15     F     0.34096     0.80264     0.37575     -0.099927
F16     F     0.65904     0.19736     0.62425     -0.099927
F17     F     0.46168     0.65904     0.37575     -0.099931
F18     F     0.53832     0.34096     0.62425     -0.099931
F19     F     0.80264     0.46168     0.37575     -0.099931
F20     F     0.19736     0.53832     0.62425     -0.09993
F21     F     0.65904     0.19736     0.37575     -0.099927
F22     F     0.34096     0.80264     0.62425     -0.099927
F23     F     0.53832     0.34096     0.37575     -0.099931
F24     F     0.46168     0.65904     0.62425     -0.099931
F25     F     0.22570     0.30256     0.08843     -0.105567
F26     F     0.77430     0.69744     0.91157     -0.105566
F27     F     0.69744     0.92314     0.08843     -0.105565
F28     F     0.30256     0.07686     0.91157     -0.105564
F29     F     0.07686     0.77430     0.08843     -0.105567
F30     F     0.92314     0.22570     0.91157     -0.105567
F31     F     0.77430     0.69744     0.08843     -0.105566
F32     F     0.22570     0.30256     0.91157     -0.105567
F33     F     0.30256     0.07686     0.08843     -0.105564
F34     F     0.69744     0.92314     0.91157     -0.105565
F35     F     0.92314     0.22570     0.08843     -0.105567
F36     F     0.07686     0.77430     0.91157     -0.105567
F37     F     0.30256     0.22570     0.41157     -0.105567
F38     F     0.69744     0.77430     0.58843     -0.105567
F39     F     0.92314     0.69744     0.41157     -0.105566
F40     F     0.07686     0.30256     0.58843     -0.105567
F41     F     0.77430     0.07686     0.41157     -0.105564
F42     F     0.22570     0.92314     0.58843     -0.105565
F43     F     0.69744     0.77430     0.41157     -0.105567
F44     F     0.30256     0.22570     0.58843     -0.105567
F45     F     0.07686     0.30256     0.41157     -0.105567
F46     F     0.92314     0.69744     0.58843     -0.105566
F47     F     0.22570     0.92314     0.41157     -0.105565
F48     F     0.77430     0.07686     0.58843     -0.105564

