#======================================================================

# CRYSTAL DATA

#----------------------------------------------------------------------

data_VESTA_phase_1


_chemical_name_common                  ''
_cell_length_a                         54.18410
_cell_length_b                         54.18410
_cell_length_c                         49.09140
_cell_angle_alpha                      90
_cell_angle_beta                       90
_cell_angle_gamma                      120
_space_group_name_H-M_alt              'P 1'
_space_group_IT_number                 1

loop_
_space_group_symop_operation_xyz
   'x, y, z'

loop_
_atom_site_label
_atom_site_type_symbol
_atom_site_fract_x
_atom_site_fract_y
_atom_site_fract_z
_atom_site_charge
C1   C   0.33086   0.63976   0.38778   -0.06894
C2   C   0.36024   0.69110   0.38778   -0.06893
C3   C   0.30890   0.66914   0.38778   -0.06894
C4   C   0.63976   0.33086   0.61222   -0.06894
C5   C   0.69110   0.36024   0.61222   -0.06894
C6   C   0.66914   0.30890   0.61222   -0.06893
C7   C   0.99753   0.97309   0.72111   -0.06893
C8   C   0.02691   0.02443   0.72111   -0.06893
C9   C   0.97557   0.00247   0.72111   -0.06893
C10   C   0.30643   0.66419   0.94555   -0.06893
C11   C   0.35777   0.69357   0.94555   -0.06893
C12   C   0.33581   0.64223   0.94555   -0.06893
C13   C   0.66419   0.30643   0.05445   -0.06893
C14   C   0.69357   0.35777   0.05445   -0.06893
C15   C   0.64223   0.33581   0.05445   -0.06894
C16   C   0.97309   0.99753   0.27889   -0.06894
C17   C   0.02443   0.02691   0.27889   -0.06893
C18   C   0.00247   0.97557   0.27889   -0.06893
C19   C   0.32872   0.61641   0.37368   -0.09768
C20   C   0.38359   0.71231   0.37368   -0.09769
C21   C   0.28769   0.67128   0.37368   -0.09768
C22   C   0.61641   0.32872   0.62632   -0.09768
C23   C   0.71231   0.38359   0.62632   -0.09768
C24   C   0.67128   0.28769   0.62632   -0.09769
C25   C   0.99539   0.94974   0.70701   -0.09768
C26   C   0.05026   0.04564   0.70701   -0.09768
C27   C   0.95436   0.00461   0.70701   -0.09768
C28   C   0.28308   0.66205   0.95965   -0.09768
C29   C   0.37898   0.71692   0.95965   -0.09768
C30   C   0.33795   0.62102   0.95965   -0.09768
C31   C   0.66205   0.28308   0.04035   -0.09768
C32   C   0.71692   0.37898   0.04035   -0.09768
C33   C   0.62102   0.33795   0.04035   -0.09768
C34   C   0.94974   0.99539   0.29299   -0.09768
C35   C   0.04564   0.05026   0.29299   -0.09768
C36   C   0.00461   0.95436   0.29299   -0.09768
C37   C   0.32667   0.59313   0.38842   -0.03126
C38   C   0.40687   0.73354   0.38842   -0.03125
C39   C   0.26646   0.67333   0.38842   -0.03126
C40   C   0.59313   0.32667   0.61158   -0.03126
C41   C   0.73354   0.40687   0.61158   -0.03126
C42   C   0.67333   0.26646   0.61158   -0.03125
C43   C   0.99334   0.92646   0.72175   -0.03126
C44   C   0.07354   0.06687   0.72175   -0.03126
C45   C   0.93313   0.00666   0.72175   -0.03126
C46   C   0.25980   0.66000   0.94491   -0.03126
C47   C   0.40021   0.74020   0.94491   -0.03126
C48   C   0.34000   0.59979   0.94491   -0.03126
C49   C   0.66000   0.25980   0.05509   -0.03126
C50   C   0.74020   0.40021   0.05509   -0.03126
C51   C   0.59979   0.34000   0.05509   -0.03127
C52   C   0.92646   0.99334   0.27825   -0.03126
C53   C   0.06687   0.07354   0.27825   -0.03126
C54   C   0.00666   0.93313   0.27825   -0.03126
C55   C   0.34578   0.57037   0.35724   -0.13424
C56   C   0.42963   0.77541   0.35724   -0.13424
C57   C   0.22459   0.65422   0.35724   -0.13424
C58   C   0.57037   0.34578   0.64276   -0.13424
C59   C   0.77541   0.42963   0.64276   -0.13424
C60   C   0.65422   0.22459   0.64276   -0.13424
C61   C   0.01245   0.90370   0.69057   -0.13424
C62   C   0.09630   0.10874   0.69057   -0.13424
C63   C   0.89126   0.98755   0.69057   -0.13424
C64   C   0.23704   0.67911   0.97609   -0.13424
C65   C   0.44208   0.76296   0.97609   -0.13424
C66   C   0.32089   0.55792   0.97609   -0.13424
C67   C   0.67911   0.23704   0.02391   -0.13424
C68   C   0.76296   0.44208   0.02391   -0.13424
C69   C   0.55792   0.32089   0.02391   -0.13424
C70   C   0.90370   0.01245   0.30943   -0.13425
C71   C   0.10874   0.09630   0.30943   -0.13424
C72   C   0.98755   0.89126   0.30943   -0.13424
C73   C   0.32346   0.56807   0.37349   -0.02223
C74   C   0.43193   0.75539   0.37349   -0.02223
C75   C   0.24461   0.67654   0.37349   -0.02223
C76   C   0.56807   0.32346   0.62651   -0.02223
C77   C   0.75539   0.43193   0.62651   -0.02223
C78   C   0.67654   0.24461   0.62651   -0.02223
C79   C   0.99013   0.90140   0.70682   -0.02223
C80   C   0.09860   0.08872   0.70682   -0.02223
C81   C   0.91128   0.00987   0.70682   -0.02223
C82   C   0.23474   0.65679   0.95984   -0.02223
C83   C   0.42206   0.76526   0.95984   -0.02223
C84   C   0.34321   0.57794   0.95984   -0.02223
C85   C   0.65679   0.23474   0.04016   -0.02223
C86   C   0.76526   0.42206   0.04016   -0.02223
C87   C   0.57794   0.34321   0.04016   -0.02223
C88   C   0.90140   0.99013   0.29318   -0.02223
C89   C   0.08872   0.09860   0.29318   -0.02223
C90   C   0.00987   0.91128   0.29318   -0.02223
C91   C   0.29935   0.54124   0.37785   -0.11811
C92   C   0.45876   0.75811   0.37785   -0.11810
C93   C   0.24189   0.70065   0.37785   -0.11810
C94   C   0.54124   0.29935   0.62215   -0.11810
C95   C   0.75811   0.45876   0.62215   -0.11810
C96   C   0.70065   0.24189   0.62215   -0.11810
C97   C   0.96602   0.87457   0.71118   -0.11811
C98   C   0.12543   0.09144   0.71118   -0.11810
C99   C   0.90856   0.03398   0.71118   -0.11811
C100   C   0.20791   0.63268   0.95548   -0.11811
C101   C   0.42478   0.79209   0.95548   -0.11811
C102   C   0.36732   0.57522   0.95548   -0.11810
C103   C   0.63268   0.20791   0.04452   -0.11811
C104   C   0.79209   0.42478   0.04452   -0.11810
C105   C   0.57522   0.36732   0.04452   -0.11811
C106   C   0.87457   0.96602   0.28882   -0.11810
C107   C   0.09144   0.12543   0.28882   -0.11811
C108   C   0.03398   0.90856   0.28882   -0.11810
C109   C   0.29833   0.51676   0.36749   -0.10342
C110   C   0.48324   0.78157   0.36749   -0.10342
C111   C   0.21843   0.70167   0.36749   -0.10342
C112   C   0.51676   0.29833   0.63251   -0.10342
C113   C   0.78157   0.48324   0.63251   -0.10342
C114   C   0.70167   0.21843   0.63251   -0.10342
C115   C   0.96500   0.85009   0.70082   -0.10342
C116   C   0.14991   0.11490   0.70082   -0.10342
C117   C   0.88510   0.03500   0.70082   -0.10342
C118   C   0.18343   0.63166   0.96584   -0.10342
C119   C   0.44824   0.81657   0.96584   -0.10342
C120   C   0.36834   0.55176   0.96584   -0.10342
C121   C   0.63166   0.18343   0.03416   -0.10342
C122   C   0.81657   0.44824   0.03416   -0.10342
C123   C   0.55176   0.36834   0.03416   -0.10342
C124   C   0.85009   0.96500   0.29918   -0.10342
C125   C   0.11490   0.14991   0.29918   -0.10342
C126   C   0.03500   0.88510   0.29918   -0.10342
C127   C   0.32152   0.51879   0.35290   -0.06994
C128   C   0.48121   0.80273   0.35290   -0.06993
C129   C   0.19727   0.67848   0.35290   -0.06994
C130   C   0.51879   0.32152   0.64710   -0.06994
C131   C   0.80273   0.48121   0.64710   -0.06994
C132   C   0.67848   0.19727   0.64710   -0.06993
C133   C   0.98819   0.85212   0.68623   -0.06994
C134   C   0.14788   0.13606   0.68623   -0.06993
C135   C   0.86394   0.01181   0.68623   -0.06994
C136   C   0.18546   0.65485   0.98043   -0.06994
C137   C   0.46940   0.81454   0.98043   -0.06994
C138   C   0.34515   0.53060   0.98043   -0.06993
C139   C   0.65485   0.18546   0.01957   -0.06994
C140   C   0.81454   0.46940   0.01957   -0.06993
C141   C   0.53060   0.34515   0.01957   -0.06994
C142   C   0.85212   0.98819   0.31377   -0.06994
C143   C   0.13606   0.14788   0.31377   -0.06994
C144   C   0.01181   0.86394   0.31377   -0.06993
C145   C   0.34494   0.54585   0.34716   -0.07886
C146   C   0.45415   0.79909   0.34716   -0.07886
C147   C   0.20091   0.65506   0.34716   -0.07886
C148   C   0.54585   0.34494   0.65284   -0.07886
C149   C   0.79909   0.45415   0.65284   -0.07886
C150   C   0.65506   0.20091   0.65284   -0.07886
C151   C   0.01161   0.87918   0.68049   -0.07886
C152   C   0.12082   0.13242   0.68049   -0.07886
C153   C   0.86758   0.98839   0.68049   -0.07886
C154   C   0.21252   0.67827   0.98617   -0.07886
C155   C   0.46576   0.78748   0.98617   -0.07886
C156   C   0.32173   0.53424   0.98617   -0.07886
C157   C   0.67827   0.21252   0.01383   -0.07886
C158   C   0.78748   0.46576   0.01383   -0.07886
C159   C   0.53424   0.32173   0.01383   -0.07886
C160   C   0.87918   0.01161   0.31951   -0.07886
C161   C   0.13242   0.12082   0.31951   -0.07886
C162   C   0.98839   0.86758   0.31951   -0.07886
C163   C   0.32198   0.49252   0.34621   0.01286
C164   C   0.50748   0.82946   0.34621   0.01286
C165   C   0.17054   0.67802   0.34621   0.01286
C166   C   0.49252   0.32198   0.65379   0.01286
C167   C   0.82946   0.50748   0.65379   0.01286
C168   C   0.67802   0.17054   0.65379   0.01286
C169   C   0.98865   0.82585   0.67954   0.01286
C170   C   0.17415   0.16279   0.67954   0.01286
C171   C   0.83721   0.01135   0.67954   0.01286
C172   C   0.15919   0.65531   0.98712   0.01286
C173   C   0.49613   0.84081   0.98712   0.01286
C174   C   0.34469   0.50387   0.98712   0.01286
C175   C   0.65531   0.15919   0.01288   0.01286
C176   C   0.84081   0.49613   0.01288   0.01285
C177   C   0.50387   0.34469   0.01288   0.01286
C178   C   0.82585   0.98865   0.32046   0.01286
C179   C   0.16279   0.17415   0.32046   0.01286
C180   C   0.01135   0.83721   0.32046   0.01285
C181   C   0.37552   0.47451   0.32435   -0.13812
C182   C   0.52549   0.90101   0.32435   -0.13811
C183   C   0.09899   0.62448   0.32435   -0.13812
C184   C   0.47451   0.37552   0.67565   -0.13813
C185   C   0.90101   0.52549   0.67565   -0.13812
C186   C   0.62448   0.09899   0.67565   -0.13811
C187   C   0.04219   0.80784   0.65768   -0.13812
C188   C   0.19216   0.23434   0.65768   -0.13811
C189   C   0.76566   0.95781   0.65768   -0.13813
C190   C   0.14118   0.70885   0.00898   -0.13813
C191   C   0.56768   0.85882   0.00898   -0.13812
C192   C   0.29115   0.43232   0.00898   -0.13811
C193   C   0.70885   0.14118   0.99102   -0.13813
C194   C   0.85882   0.56768   0.99102   -0.13811
C195   C   0.43232   0.29115   0.99102   -0.13813
C196   C   0.80784   0.04219   0.34232   -0.13813
C197   C   0.23434   0.19216   0.34232   -0.13812
C198   C   0.95781   0.76566   0.34232   -0.13811
C199   C   0.35023   0.46984   0.33662   0.02926
C200   C   0.53016   0.88039   0.33662   0.02924
C201   C   0.11961   0.64977   0.33662   0.02925
C202   C   0.46984   0.35023   0.66338   0.02926
C203   C   0.88039   0.53016   0.66338   0.02926
C204   C   0.64977   0.11961   0.66338   0.02924
C205   C   0.01690   0.80317   0.66995   0.02925
C206   C   0.19683   0.21372   0.66995   0.02924
C207   C   0.78628   0.98310   0.66995   0.02925
C208   C   0.13651   0.68356   0.99671   0.02925
C209   C   0.54706   0.86349   0.99671   0.02926
C210   C   0.31644   0.45294   0.99671   0.02924
C211   C   0.68356   0.13651   0.00329   0.02926
C212   C   0.86349   0.54706   0.00329   0.02924
C213   C   0.45294   0.31644   0.00329   0.02926
C214   C   0.80317   0.01690   0.33005   0.02926
C215   C   0.21372   0.19683   0.33005   0.02925
C216   C   0.98310   0.78628   0.33005   0.02924
C217   C   0.33149   0.44283   0.34771   -0.17280
C218   C   0.55717   0.88866   0.34771   -0.17279
C219   C   0.11134   0.66851   0.34771   -0.17280
C220   C   0.44283   0.33149   0.65229   -0.17280
C221   C   0.88866   0.55717   0.65229   -0.17280
C222   C   0.66851   0.11134   0.65229   -0.17279
C223   C   0.99816   0.77616   0.68104   -0.17280
C224   C   0.22384   0.22199   0.68104   -0.17279
C225   C   0.77801   0.00184   0.68104   -0.17280
C226   C   0.10950   0.66482   0.98562   -0.17280
C227   C   0.55533   0.89050   0.98562   -0.17280
C228   C   0.33518   0.44467   0.98562   -0.17279
C229   C   0.66482   0.10950   0.01438   -0.17280
C230   C   0.89050   0.55533   0.01438   -0.17279
C231   C   0.44467   0.33518   0.01438   -0.17280
C232   C   0.77616   0.99816   0.31896   -0.17280
C233   C   0.22199   0.22384   0.31896   -0.17280
C234   C   0.00184   0.77801   0.31896   -0.17279
C235   C   0.33813   0.42106   0.34645   -0.09018
C236   C   0.57894   0.91707   0.34645   -0.09019
C237   C   0.08293   0.66187   0.34645   -0.09018
C238   C   0.42106   0.33813   0.65355   -0.09018
C239   C   0.91707   0.57894   0.65355   -0.09018
C240   C   0.66187   0.08293   0.65355   -0.09019
C241   C   0.00480   0.75439   0.67978   -0.09018
C242   C   0.24561   0.25040   0.67978   -0.09019
C243   C   0.74960   0.99520   0.67978   -0.09018
C244   C   0.08773   0.67146   0.98688   -0.09018
C245   C   0.58374   0.91227   0.98688   -0.09018
C246   C   0.32854   0.41626   0.98688   -0.09019
C247   C   0.67146   0.08773   0.01312   -0.09018
C248   C   0.91227   0.58374   0.01312   -0.09019
C249   C   0.41626   0.32854   0.01312   -0.09018
C250   C   0.75439   0.00480   0.32022   -0.09018
C251   C   0.25040   0.24561   0.32022   -0.09018
C252   C   0.99520   0.74960   0.32022   -0.09019
C253   C   0.36359   0.42582   0.33429   -0.07080
C254   C   0.57418   0.93777   0.33429   -0.07079
C255   C   0.06223   0.63641   0.33429   -0.07080
C256   C   0.42582   0.36359   0.66571   -0.07080
C257   C   0.93777   0.57418   0.66571   -0.07080
C258   C   0.63641   0.06223   0.66571   -0.07079
C259   C   0.03026   0.75915   0.66762   -0.07080
C260   C   0.24085   0.27110   0.66762   -0.07079
C261   C   0.72890   0.96974   0.66762   -0.07081
C262   C   0.09249   0.69692   0.99904   -0.07081
C263   C   0.60444   0.90751   0.99904   -0.07080
C264   C   0.30308   0.39556   0.99904   -0.07079
C265   C   0.69692   0.09249   0.00096   -0.07081
C266   C   0.90751   0.60444   0.00096   -0.07079
C267   C   0.39556   0.30308   0.00096   -0.07081
C268   C   0.75915   0.03026   0.33238   -0.07080
C269   C   0.27110   0.24085   0.33238   -0.07081
C270   C   0.96974   0.72890   0.33238   -0.07079
C271   C   0.38222   0.45275   0.32304   0.10587
C272   C   0.54725   0.92947   0.32304   0.10585
C273   C   0.07053   0.61778   0.32304   0.10587
C274   C   0.45275   0.38222   0.67696   0.10587
C275   C   0.92947   0.54725   0.67696   0.10587
C276   C   0.61778   0.07053   0.67696   0.10585
C277   C   0.04889   0.78608   0.65637   0.10587
C278   C   0.21392   0.26280   0.65637   0.10585
C279   C   0.73720   0.95111   0.65637   0.10587
C280   C   0.11942   0.71555   0.01029   0.10587
C281   C   0.59614   0.88058   0.01029   0.10587
C282   C   0.28445   0.40386   0.01029   0.10585
C283   C   0.71555   0.11942   0.98971   0.10587
C284   C   0.88058   0.59614   0.98971   0.10585
C285   C   0.40386   0.28445   0.98971   0.10587
C286   C   0.78608   0.04889   0.34363   0.10587
C287   C   0.26280   0.21392   0.34363   0.10587
C288   C   0.95111   0.73720   0.34363   0.10585
C289   C   0.38507   0.35912   0.33364   -0.06022
C290   C   0.64088   0.02595   0.33364   -0.06022
C291   C   0.97405   0.61493   0.33364   -0.06022
C292   C   0.35912   0.38507   0.66636   -0.06022
C293   C   0.02595   0.64088   0.66636   -0.06022
C294   C   0.61493   0.97405   0.66636   -0.06022
C295   C   0.05174   0.69245   0.66697   -0.06022
C296   C   0.30755   0.35928   0.66697   -0.06022
C297   C   0.64072   0.94826   0.66697   -0.06022
C298   C   0.02579   0.71840   0.99969   -0.06022
C299   C   0.69262   0.97421   0.99969   -0.06022
C300   C   0.28160   0.30738   0.99969   -0.06022
C301   C   0.71840   0.02579   0.00031   -0.06022
C302   C   0.97421   0.69262   0.00031   -0.06022
C303   C   0.30738   0.28160   0.00031   -0.06022
C304   C   0.69245   0.05174   0.33303   -0.06022
C305   C   0.35928   0.30755   0.33303   -0.06022
C306   C   0.94826   0.64072   0.33303   -0.06022
C307   C   0.35689   0.42491   0.62618   -0.12135
C308   C   0.57509   0.93198   0.62618   -0.12135
C309   C   0.06802   0.64311   0.62618   -0.12135
C310   C   0.42491   0.35689   0.37382   -0.12135
C311   C   0.93198   0.57509   0.37382   -0.12135
C312   C   0.64311   0.06802   0.37382   -0.12135
C313   C   0.02356   0.75824   0.95951   -0.12135
C314   C   0.24176   0.26531   0.95951   -0.12135
C315   C   0.73469   0.97644   0.95951   -0.12135
C316   C   0.09158   0.69022   0.70715   -0.12135
C317   C   0.59865   0.90842   0.70715   -0.12135
C318   C   0.30978   0.40135   0.70715   -0.12135
C319   C   0.69022   0.09158   0.29285   -0.12135
C320   C   0.90842   0.59865   0.29285   -0.12134
C321   C   0.40135   0.30978   0.29285   -0.12135
C322   C   0.75824   0.02356   0.04049   -0.12135
C323   C   0.26531   0.24176   0.04049   -0.12135
C324   C   0.97644   0.73469   0.04049   -0.12135
C325   C   0.33255   0.40728   0.64202   -0.06314
C326   C   0.59272   0.92527   0.64202   -0.06314
C327   C   0.07473   0.66745   0.64202   -0.06314
C328   C   0.40728   0.33255   0.35798   -0.06314
C329   C   0.92527   0.59272   0.35798   -0.06314
C330   C   0.66745   0.07473   0.35798   -0.06314
C331   C   0.99922   0.74061   0.97535   -0.06314
C332   C   0.25939   0.25860   0.97535   -0.06314
C333   C   0.74140   0.00078   0.97535   -0.06313
C334   C   0.07395   0.66588   0.69131   -0.06313
C335   C   0.59194   0.92605   0.69131   -0.06314
C336   C   0.33412   0.40806   0.69131   -0.06314
C337   C   0.66588   0.07395   0.30869   -0.06313
C338   C   0.92605   0.59194   0.30869   -0.06314
C339   C   0.40806   0.33412   0.30869   -0.06313
C340   C   0.74061   0.99922   0.02465   -0.06314
C341   C   0.25860   0.25939   0.02465   -0.06313
C342   C   0.00078   0.74140   0.02465   -0.06314
C343   C   0.30746   0.40832   0.63684   -0.11621
C344   C   0.59168   0.89914   0.63684   -0.11621
C345   C   0.10086   0.69254   0.63684   -0.11621
C346   C   0.40832   0.30746   0.36316   -0.11621
C347   C   0.89914   0.59168   0.36316   -0.11621
C348   C   0.69254   0.10086   0.36316   -0.11621
C349   C   0.97413   0.74165   0.97017   -0.11621
C350   C   0.25835   0.23247   0.97017   -0.11621
C351   C   0.76753   0.02587   0.97017   -0.11621
C352   C   0.07499   0.64079   0.69649   -0.11621
C353   C   0.56581   0.92501   0.69649   -0.11621
C354   C   0.35921   0.43419   0.69649   -0.11621
C355   C   0.64079   0.07499   0.30351   -0.11621
C356   C   0.92501   0.56581   0.30351   -0.11621
C357   C   0.43419   0.35921   0.30351   -0.11621
C358   C   0.74165   0.97413   0.02983   -0.11621
C359   C   0.23247   0.25835   0.02983   -0.11621
C360   C   0.02587   0.76753   0.02983   -0.11621
C361   C   0.30602   0.42444   0.61542   -0.10695
C362   C   0.57556   0.88158   0.61542   -0.10695
C363   C   0.11842   0.69398   0.61542   -0.10694
C364   C   0.42444   0.30602   0.38458   -0.10695
C365   C   0.88158   0.57556   0.38458   -0.10695
C366   C   0.69398   0.11842   0.38458   -0.10695
C367   C   0.97269   0.75777   0.94875   -0.10694
C368   C   0.24223   0.21491   0.94875   -0.10695
C369   C   0.78509   0.02731   0.94875   -0.10694
C370   C   0.09111   0.63935   0.71791   -0.10694
C371   C   0.54825   0.90889   0.71791   -0.10695
C372   C   0.36065   0.45175   0.71791   -0.10695
C373   C   0.63935   0.09111   0.28209   -0.10695
C374   C   0.90889   0.54825   0.28209   -0.10695
C375   C   0.45175   0.36065   0.28209   -0.10695
C376   C   0.75777   0.97269   0.05125   -0.10694
C377   C   0.21491   0.24223   0.05125   -0.10695
C378   C   0.02731   0.78509   0.05125   -0.10695
C379   C   0.32996   0.44094   0.59909   -0.03964
C380   C   0.55906   0.88902   0.59909   -0.03963
C381   C   0.11098   0.67004   0.59909   -0.03964
C382   C   0.44094   0.32996   0.40091   -0.03964
C383   C   0.88902   0.55906   0.40091   -0.03964
C384   C   0.67004   0.11098   0.40091   -0.03963
C385   C   0.99663   0.77427   0.93242   -0.03964
C386   C   0.22573   0.22235   0.93242   -0.03963
C387   C   0.77765   0.00337   0.93242   -0.03964
C388   C   0.10761   0.66329   0.73424   -0.03964
C389   C   0.55569   0.89239   0.73424   -0.03964
C390   C   0.33671   0.44431   0.73424   -0.03963
C391   C   0.66329   0.10761   0.26576   -0.03964
C392   C   0.89239   0.55569   0.26576   -0.03963
C393   C   0.44431   0.33671   0.26576   -0.03964
C394   C   0.77427   0.99663   0.06758   -0.03965
C395   C   0.22235   0.22573   0.06758   -0.03964
C396   C   0.00337   0.77765   0.06758   -0.03963
C397   C   0.35543   0.44111   0.60474   -0.11606
C398   C   0.55889   0.91432   0.60474   -0.11607
C399   C   0.08568   0.64457   0.60474   -0.11606
C400   C   0.44111   0.35543   0.39526   -0.11606
C401   C   0.91432   0.55889   0.39526   -0.11606
C402   C   0.64457   0.08568   0.39526   -0.11607
C403   C   0.02210   0.77444   0.93807   -0.11606
C404   C   0.22556   0.24765   0.93807   -0.11607
C405   C   0.75235   0.97790   0.93807   -0.11606
C406   C   0.10778   0.68876   0.72859   -0.11606
C407   C   0.58099   0.89222   0.72859   -0.11606
C408   C   0.31124   0.41901   0.72859   -0.11607
C409   C   0.68876   0.10778   0.27141   -0.11606
C410   C   0.89222   0.58099   0.27141   -0.11606
C411   C   0.41901   0.31124   0.27141   -0.11606
C412   C   0.77444   0.02210   0.06193   -0.11606
C413   C   0.24765   0.22556   0.06193   -0.11606
C414   C   0.97790   0.75235   0.06193   -0.11606
C415   C   0.31580   0.47511   0.58002   0.10684
C416   C   0.52489   0.84069   0.58002   0.10684
C417   C   0.15931   0.68420   0.58002   0.10683
C418   C   0.47511   0.31580   0.41998   0.10683
C419   C   0.84069   0.52489   0.41998   0.10683
C420   C   0.68420   0.15931   0.41998   0.10684
C421   C   0.98247   0.80844   0.91335   0.10682
C422   C   0.19156   0.17402   0.91335   0.10684
C423   C   0.82598   0.01753   0.91335   0.10682
C424   C   0.14178   0.64913   0.75331   0.10684
C425   C   0.50736   0.85822   0.75331   0.10684
C426   C   0.35087   0.49264   0.75331   0.10685
C427   C   0.64913   0.14178   0.24669   0.10684
C428   C   0.85822   0.50736   0.24669   0.10684
C429   C   0.49264   0.35087   0.24669   0.10683
C430   C   0.80844   0.98247   0.08665   0.10681
C431   C   0.17402   0.19156   0.08665   0.10683
C432   C   0.01753   0.82598   0.08665   0.10683
C433   C   0.32839   0.45807   0.57634   -0.06962
C434   C   0.54193   0.87032   0.57634   -0.06962
C435   C   0.12968   0.67161   0.57634   -0.06960
C436   C   0.45807   0.32839   0.42366   -0.06961
C437   C   0.87032   0.54193   0.42366   -0.06961
C438   C   0.67161   0.12968   0.42366   -0.06962
C439   C   0.99506   0.79140   0.90967   -0.06959
C440   C   0.20860   0.20365   0.90967   -0.06961
C441   C   0.79635   0.00494   0.90967   -0.06960
C442   C   0.12474   0.66172   0.75699   -0.06961
C443   C   0.53699   0.87526   0.75699   -0.06961
C444   C   0.33828   0.46301   0.75699   -0.06962
C445   C   0.66172   0.12474   0.24301   -0.06962
C446   C   0.87526   0.53699   0.24301   -0.06962
C447   C   0.46301   0.33828   0.24301   -0.06960
C448   C   0.79140   0.99506   0.09033   -0.06958
C449   C   0.20365   0.20860   0.09033   -0.06960
C450   C   0.00494   0.79635   0.09033   -0.06961
C451   C   0.33922   0.45719   0.55057   -0.09072
C452   C   0.54281   0.88203   0.55057   -0.09071
C453   C   0.11797   0.66078   0.55057   -0.09072
C454   C   0.45719   0.33922   0.44943   -0.09072
C455   C   0.88203   0.54281   0.44943   -0.09072
C456   C   0.66078   0.11797   0.44943   -0.09071
C457   C   0.00589   0.79052   0.88390   -0.09072
C458   C   0.20948   0.21536   0.88390   -0.09071
C459   C   0.78464   0.99411   0.88390   -0.09073
C460   C   0.12386   0.67255   0.78276   -0.09072
C461   C   0.54870   0.87614   0.78276   -0.09072
C462   C   0.32745   0.45130   0.78276   -0.09071
C463   C   0.67255   0.12386   0.21724   -0.09072
C464   C   0.87614   0.54870   0.21724   -0.09071
C465   C   0.45130   0.32745   0.21724   -0.09072
C466   C   0.79052   0.00589   0.11610   -0.09073
C467   C   0.21536   0.20948   0.11610   -0.09072
C468   C   0.99411   0.78464   0.11610   -0.09071
C469   C   0.33738   0.47287   0.52883   -0.17260
C470   C   0.52713   0.86451   0.52883   -0.17261
C471   C   0.13549   0.66262   0.52883   -0.17259
C472   C   0.47287   0.33738   0.47117   -0.17259
C473   C   0.86451   0.52713   0.47117   -0.17260
C474   C   0.66262   0.13549   0.47117   -0.17261
C475   C   0.00405   0.80620   0.86216   -0.17260
C476   C   0.19380   0.19784   0.86216   -0.17261
C477   C   0.80216   0.99595   0.86216   -0.17259
C478   C   0.13954   0.67071   0.80450   -0.17260
C479   C   0.53118   0.86046   0.80450   -0.17260
C480   C   0.32929   0.46882   0.80450   -0.17261
C481   C   0.67071   0.13954   0.19550   -0.17260
C482   C   0.86046   0.53118   0.19550   -0.17261
C483   C   0.46882   0.32929   0.19550   -0.17259
C484   C   0.80620   0.00405   0.13784   -0.17259
C485   C   0.19784   0.19380   0.13784   -0.17260
C486   C   0.99595   0.80216   0.13784   -0.17261
C487   C   0.32480   0.48991   0.53261   0.03012
C488   C   0.51009   0.83489   0.53261   0.03013
C489   C   0.16511   0.67520   0.53261   0.03011
C490   C   0.48991   0.32480   0.46739   0.03012
C491   C   0.83489   0.51009   0.46739   0.03012
C492   C   0.67520   0.16511   0.46739   0.03013
C493   C   0.99147   0.82324   0.86594   0.03012
C494   C   0.17676   0.16822   0.86594   0.03013
C495   C   0.83178   0.00853   0.86594   0.03011
C496   C   0.15658   0.65813   0.80072   0.03012
C497   C   0.50156   0.84342   0.80072   0.03012
C498   C   0.34187   0.49844   0.80072   0.03014
C499   C   0.65813   0.15658   0.19928   0.03012
C500   C   0.84342   0.50156   0.19928   0.03013
C501   C   0.49844   0.34187   0.19928   0.03011
C502   C   0.82324   0.99147   0.13406   0.03011
C503   C   0.16822   0.17676   0.13406   0.03012
C504   C   0.00853   0.83178   0.13406   0.03013
C505   C   0.31393   0.49067   0.55825   -0.13619
C506   C   0.50933   0.82326   0.55825   -0.13620
C507   C   0.17674   0.68607   0.55825   -0.13618
C508   C   0.49067   0.31393   0.44175   -0.13618
C509   C   0.82326   0.50933   0.44175   -0.13619
C510   C   0.68607   0.17674   0.44175   -0.13620
C511   C   0.98060   0.82400   0.89158   -0.13618
C512   C   0.17600   0.15659   0.89158   -0.13619
C513   C   0.84341   0.01940   0.89158   -0.13617
C514   C   0.15734   0.64726   0.77508   -0.13619
C515   C   0.48993   0.84266   0.77508   -0.13619
C516   C   0.35274   0.51007   0.77508   -0.13620
C517   C   0.64726   0.15734   0.22492   -0.13619
C518   C   0.84266   0.48993   0.22492   -0.13620
C519   C   0.51007   0.35274   0.22492   -0.13619
C520   C   0.82400   0.98060   0.10842   -0.13617
C521   C   0.15659   0.17600   0.10842   -0.13618
C522   C   0.01940   0.84341   0.10842   -0.13619
C523   C   0.33587   0.51337   0.48809   0.01246
C524   C   0.48663   0.82250   0.48809   0.01247
C525   C   0.17750   0.66413   0.48809   0.01246
C526   C   0.51337   0.33587   0.51191   0.01245
C527   C   0.82250   0.48663   0.51191   0.01246
C528   C   0.66413   0.17750   0.51191   0.01247
C529   C   0.00254   0.84670   0.82142   0.01246
C530   C   0.15330   0.15583   0.82142   0.01247
C531   C   0.84417   0.99746   0.82142   0.01246
C532   C   0.18004   0.66920   0.84524   0.01246
C533   C   0.48917   0.81996   0.84524   0.01246
C534   C   0.33080   0.51083   0.84524   0.01247
C535   C   0.66920   0.18004   0.15476   0.01246
C536   C   0.81996   0.48917   0.15476   0.01247
C537   C   0.51083   0.33080   0.15476   0.01245
C538   C   0.84670   0.00254   0.17858   0.01245
C539   C   0.15583   0.15330   0.17858   0.01246
C540   C   0.99746   0.84417   0.17858   0.01247
C541   C   0.32789   0.57111   0.43391   -0.02209
C542   C   0.42889   0.75678   0.43391   -0.02207
C543   C   0.24322   0.67211   0.43391   -0.02209
C544   C   0.57111   0.32789   0.56609   -0.02209
C545   C   0.75678   0.42889   0.56609   -0.02209
C546   C   0.67211   0.24322   0.56609   -0.02207
C547   C   0.99456   0.90444   0.76724   -0.02208
C548   C   0.09556   0.09011   0.76724   -0.02207
C549   C   0.90989   0.00544   0.76724   -0.02209
C550   C   0.23778   0.66122   0.89942   -0.02209
C551   C   0.42345   0.76222   0.89942   -0.02209
C552   C   0.33878   0.57655   0.89942   -0.02208
C553   C   0.66122   0.23778   0.10058   -0.02209
C554   C   0.76222   0.42345   0.10058   -0.02208
C555   C   0.57655   0.33878   0.10058   -0.02209
C556   C   0.90444   0.99456   0.23276   -0.02209
C557   C   0.09011   0.09556   0.23276   -0.02209
C558   C   0.00544   0.90989   0.23276   -0.02207
C559   C   0.32744   0.59381   0.41744   -0.02718
C560   C   0.40619   0.73363   0.41744   -0.02719
C561   C   0.26637   0.67256   0.41744   -0.02718
C562   C   0.59381   0.32744   0.58256   -0.02718
C563   C   0.73363   0.40619   0.58256   -0.02718
C564   C   0.67256   0.26637   0.58256   -0.02719
C565   C   0.99411   0.92714   0.75077   -0.02718
C566   C   0.07286   0.06696   0.75077   -0.02719
C567   C   0.93304   0.00589   0.75077   -0.02718
C568   C   0.26048   0.66077   0.91589   -0.02718
C569   C   0.40030   0.73952   0.91589   -0.02718
C570   C   0.33923   0.59970   0.91589   -0.02719
C571   C   0.66077   0.26048   0.08411   -0.02718
C572   C   0.73952   0.40030   0.08411   -0.02719
C573   C   0.59970   0.33923   0.08411   -0.02718
C574   C   0.92714   0.99411   0.24923   -0.02718
C575   C   0.06696   0.07286   0.24923   -0.02718
C576   C   0.00589   0.93304   0.24923   -0.02719
C577   C   0.32922   0.61729   0.43132   -0.09911
C578   C   0.38271   0.71193   0.43132   -0.09911
C579   C   0.28807   0.67078   0.43132   -0.09911
C580   C   0.61729   0.32922   0.56868   -0.09911
C581   C   0.71193   0.38271   0.56868   -0.09911
C582   C   0.67078   0.28807   0.56868   -0.09911
C583   C   0.99589   0.95062   0.76465   -0.09911
C584   C   0.04938   0.04526   0.76465   -0.09911
C585   C   0.95474   0.00411   0.76465   -0.09911
C586   C   0.28396   0.66255   0.90201   -0.09911
C587   C   0.37860   0.71604   0.90201   -0.09911
C588   C   0.33745   0.62140   0.90201   -0.09911
C589   C   0.66255   0.28396   0.09799   -0.09911
C590   C   0.71604   0.37860   0.09799   -0.09911
C591   C   0.62140   0.33745   0.09799   -0.09911
C592   C   0.95062   0.99589   0.23535   -0.09911
C593   C   0.04526   0.04938   0.23535   -0.09911
C594   C   0.00411   0.95474   0.23535   -0.09911
C595   C   0.33088   0.63995   0.41667   -0.06764
C596   C   0.36005   0.69093   0.41667   -0.06764
C597   C   0.30907   0.66912   0.41667   -0.06763
C598   C   0.63995   0.33088   0.58333   -0.06764
C599   C   0.69093   0.36005   0.58333   -0.06763
C600   C   0.66912   0.30907   0.58333   -0.06763
C601   C   0.99755   0.97328   0.75000   -0.06764
C602   C   0.02672   0.02426   0.75000   -0.06764
C603   C   0.97574   0.00245   0.75000   -0.06763
C604   C   0.30662   0.66421   0.91667   -0.06763
C605   C   0.35760   0.69338   0.91667   -0.06764
C606   C   0.33579   0.64240   0.91667   -0.06764
C607   C   0.66421   0.30662   0.08333   -0.06763
C608   C   0.69338   0.35760   0.08333   -0.06764
C609   C   0.64240   0.33579   0.08333   -0.06764
C610   C   0.97328   0.99755   0.25000   -0.06764
C611   C   0.02426   0.02672   0.25000   -0.06764
C612   C   0.00245   0.97574   0.25000   -0.06764
C613   C   0.30846   0.55833   0.45536   -0.13557
C614   C   0.44167   0.75013   0.45536   -0.13558
C615   C   0.24987   0.69154   0.45536   -0.13557
C616   C   0.55833   0.30846   0.54464   -0.13557
C617   C   0.75013   0.44167   0.54464   -0.13557
C618   C   0.69154   0.24987   0.54464   -0.13558
C619   C   0.97513   0.89166   0.78869   -0.13557
C620   C   0.10834   0.08346   0.78869   -0.13558
C621   C   0.91654   0.02487   0.78869   -0.13557
C622   C   0.22500   0.64179   0.87797   -0.13557
C623   C   0.41680   0.77500   0.87797   -0.13557
C624   C   0.35821   0.58320   0.87797   -0.13558
C625   C   0.64179   0.22500   0.12203   -0.13557
C626   C   0.77500   0.41680   0.12203   -0.13558
C627   C   0.58320   0.35821   0.12203   -0.13557
C628   C   0.89166   0.97513   0.21131   -0.13557
C629   C   0.08346   0.10834   0.21131   -0.13557
C630   C   0.02487   0.91654   0.21131   -0.13558
C631   C   0.31048   0.53896   0.47265   -0.07856
C632   C   0.46104   0.77152   0.47265   -0.07855
C633   C   0.22848   0.68952   0.47265   -0.07857
C634   C   0.53896   0.31048   0.52735   -0.07857
C635   C   0.77152   0.46104   0.52735   -0.07856
C636   C   0.68952   0.22848   0.52735   -0.07855
C637   C   0.97715   0.87229   0.80598   -0.07856
C638   C   0.12771   0.10485   0.80598   -0.07855
C639   C   0.89515   0.02285   0.80598   -0.07857
C640   C   0.20563   0.64381   0.86068   -0.07857
C641   C   0.43819   0.79437   0.86068   -0.07856
C642   C   0.35619   0.56181   0.86068   -0.07855
C643   C   0.64381   0.20563   0.13932   -0.07856
C644   C   0.79437   0.43819   0.13932   -0.07855
C645   C   0.56181   0.35619   0.13932   -0.07857
C646   C   0.87229   0.97715   0.19402   -0.07857
C647   C   0.10485   0.12771   0.19402   -0.07856
C648   C   0.02285   0.89515   0.19402   -0.07855
C649   C   0.33201   0.53202   0.46876   -0.06863
C650   C   0.46798   0.79999   0.46876   -0.06865
C651   C   0.20001   0.66799   0.46876   -0.06863
C652   C   0.53202   0.33201   0.53124   -0.06863
C653   C   0.79999   0.46798   0.53124   -0.06863
C654   C   0.66799   0.20001   0.53124   -0.06865
C655   C   0.99868   0.86535   0.80209   -0.06864
C656   C   0.13465   0.13332   0.80209   -0.06865
C657   C   0.86668   0.00132   0.80209   -0.06863
C658   C   0.19869   0.66534   0.86457   -0.06863
C659   C   0.46666   0.80131   0.86457   -0.06864
C660   C   0.33466   0.53334   0.86457   -0.06865
C661   C   0.66534   0.19869   0.13543   -0.06864
C662   C   0.80131   0.46666   0.13543   -0.06865
C663   C   0.53334   0.33466   0.13543   -0.06863
C664   C   0.86535   0.99868   0.19791   -0.06863
C665   C   0.13332   0.13465   0.19791   -0.06863
C666   C   0.00132   0.86668   0.19791   -0.06865
C667   C   0.34902   0.56372   0.42964   -0.11902
C668   C   0.43628   0.78530   0.42964   -0.11903
C669   C   0.21470   0.65098   0.42964   -0.11901
C670   C   0.56372   0.34902   0.57036   -0.11901
C671   C   0.78530   0.43628   0.57036   -0.11902
C672   C   0.65098   0.21470   0.57036   -0.11903
C673   C   0.01569   0.89705   0.76297   -0.11902
C674   C   0.10295   0.11863   0.76297   -0.11903
C675   C   0.88137   0.98431   0.76297   -0.11901
C676   C   0.23039   0.68235   0.90369   -0.11901
C677   C   0.45197   0.76961   0.90369   -0.11902
C678   C   0.31765   0.54803   0.90369   -0.11903
C679   C   0.68235   0.23039   0.09631   -0.11902
C680   C   0.76961   0.45197   0.09631   -0.11903
C681   C   0.54803   0.31765   0.09631   -0.11901
C682   C   0.89705   0.01569   0.23703   -0.11901
C683   C   0.11863   0.10295   0.23703   -0.11902
C684   C   0.98431   0.88137   0.23703   -0.11903
C685   C   0.35089   0.54414   0.44680   -0.10377
C686   C   0.45586   0.80675   0.44680   -0.10376
C687   C   0.19325   0.64911   0.44680   -0.10377
C688   C   0.54414   0.35089   0.55320   -0.10377
C689   C   0.80675   0.45586   0.55320   -0.10377
C690   C   0.64911   0.19325   0.55320   -0.10376
C691   C   0.01756   0.87747   0.78013   -0.10377
C692   C   0.12253   0.14008   0.78013   -0.10376
C693   C   0.85992   0.98244   0.78013   -0.10377
C694   C   0.21081   0.68422   0.88653   -0.10377
C695   C   0.47342   0.78919   0.88653   -0.10377
C696   C   0.31578   0.52658   0.88653   -0.10376
C697   C   0.68422   0.21081   0.11347   -0.10377
C698   C   0.78919   0.47342   0.11347   -0.10376
C699   C   0.52658   0.31578   0.11347   -0.10377
C700   C   0.87747   0.01756   0.21987   -0.10377
C701   C   0.14008   0.12253   0.21987   -0.10377
C702   C   0.98244   0.85992   0.21987   -0.10376
C703   C   0.36523   0.37437   0.64264   -0.12013
C704   C   0.62563   0.99086   0.64264   -0.12013
C705   C   0.00914   0.63477   0.64264   -0.12013
C706   C   0.37437   0.36523   0.35736   -0.12013
C707   C   0.99086   0.62563   0.35736   -0.12013
C708   C   0.63477   0.00914   0.35736   -0.12013
C709   C   0.03190   0.70770   0.97597   -0.12013
C710   C   0.29230   0.32419   0.97597   -0.12013
C711   C   0.67581   0.96810   0.97597   -0.12013
C712   C   0.04104   0.69856   0.69069   -0.12013
C713   C   0.65753   0.95896   0.69069   -0.12014
C714   C   0.30144   0.34247   0.69069   -0.12013
C715   C   0.69856   0.04104   0.30931   -0.12013
C716   C   0.95896   0.65753   0.30931   -0.12013
C717   C   0.34247   0.30144   0.30931   -0.12013
C718   C   0.70770   0.03190   0.02403   -0.12013
C719   C   0.32419   0.29230   0.02403   -0.12013
C720   C   0.96810   0.67581   0.02403   -0.12013
C721   C   0.38702   0.36775   0.64236   -0.11605
C722   C   0.63225   0.01927   0.64236   -0.11605
C723   C   0.98073   0.61298   0.64236   -0.11605
C724   C   0.36775   0.38702   0.35764   -0.11605
C725   C   0.01927   0.63225   0.35764   -0.11605
C726   C   0.61298   0.98073   0.35764   -0.11605
C727   C   0.05369   0.70108   0.97569   -0.11605
C728   C   0.29892   0.35260   0.97569   -0.11605
C729   C   0.64740   0.94631   0.97569   -0.11605
C730   C   0.03442   0.72035   0.69097   -0.11605
C731   C   0.68594   0.96558   0.69097   -0.11605
C732   C   0.27965   0.31406   0.69097   -0.11605
C733   C   0.72035   0.03442   0.30903   -0.11605
C734   C   0.96558   0.68594   0.30903   -0.11605
C735   C   0.31406   0.27965   0.30903   -0.11605
C736   C   0.70108   0.05369   0.02431   -0.11605
C737   C   0.35260   0.29892   0.02431   -0.11605
C738   C   0.94631   0.64740   0.02431   -0.11605
C739   C   0.40284   0.37080   0.66600   -0.04126
C740   C   0.62920   0.03204   0.66600   -0.04126
C741   C   0.96796   0.59716   0.66600   -0.04126
C742   C   0.37080   0.40284   0.33400   -0.04126
C743   C   0.03204   0.62920   0.33400   -0.04126
C744   C   0.59716   0.96796   0.33400   -0.04126
C745   C   0.06951   0.70413   0.99933   -0.04126
C746   C   0.29587   0.36537   0.99933   -0.04126
C747   C   0.63463   0.93049   0.99933   -0.04125
C748   C   0.03747   0.73617   0.66733   -0.04125
C749   C   0.69871   0.96253   0.66733   -0.04126
C750   C   0.26383   0.30129   0.66733   -0.04126
C751   C   0.73617   0.03747   0.33267   -0.04125
C752   C   0.96253   0.69871   0.33267   -0.04126
C753   C   0.30129   0.26383   0.33267   -0.04126
C754   C   0.70413   0.06951   0.00067   -0.04125
C755   C   0.36537   0.29587   0.00067   -0.04125
C756   C   0.93049   0.63463   0.00067   -0.04126
C757   C   0.39608   0.38005   0.69004   -0.10836
C758   C   0.61995   0.01603   0.69004   -0.10836
C759   C   0.98397   0.60392   0.69004   -0.10836
C760   C   0.38005   0.39608   0.30996   -0.10836
C761   C   0.01603   0.61995   0.30996   -0.10836
C762   C   0.60392   0.98397   0.30996   -0.10836
C763   C   0.06275   0.71338   0.02337   -0.10836
C764   C   0.28662   0.34936   0.02337   -0.10835
C765   C   0.65064   0.93725   0.02337   -0.10836
C766   C   0.04672   0.72941   0.64329   -0.10836
C767   C   0.68270   0.95328   0.64329   -0.10836
C768   C   0.27059   0.31730   0.64329   -0.10835
C769   C   0.72941   0.04672   0.35671   -0.10836
C770   C   0.95328   0.68270   0.35671   -0.10835
C771   C   0.31730   0.27059   0.35671   -0.10836
C772   C   0.71338   0.06275   0.97663   -0.10836
C773   C   0.34936   0.28662   0.97663   -0.10836
C774   C   0.93725   0.65064   0.97663   -0.10835
C775   C   0.37429   0.38667   0.69036   -0.11904
C776   C   0.61333   0.98762   0.69036   -0.11905
C777   C   0.01238   0.62571   0.69036   -0.11904
C778   C   0.38667   0.37429   0.30964   -0.11905
C779   C   0.98762   0.61333   0.30964   -0.11904
C780   C   0.62571   0.01238   0.30964   -0.11905
C781   C   0.04096   0.72000   0.02369   -0.11904
C782   C   0.28000   0.32095   0.02369   -0.11904
C783   C   0.67905   0.95904   0.02369   -0.11904
C784   C   0.05334   0.70762   0.64297   -0.11904
C785   C   0.65429   0.94666   0.64297   -0.11904
C786   C   0.29238   0.34571   0.64297   -0.11904
C787   C   0.70762   0.05334   0.35703   -0.11904
C788   C   0.94666   0.65429   0.35703   -0.11904
C789   C   0.34571   0.29238   0.35703   -0.11904
C790   C   0.72000   0.04096   0.97631   -0.11904
C791   C   0.32095   0.28000   0.97631   -0.11904
C792   C   0.95904   0.67905   0.97631   -0.11904
C793   C   0.33333   0.38993   0.66667   0.12107
C794   C   0.61007   0.94340   0.66667   0.12107
C795   C   0.05660   0.66667   0.66667   0.12107
C796   C   0.38993   0.33333   0.33333   0.12107
C797   C   0.94340   0.61007   0.33333   0.12107
C798   C   0.66667   0.05660   0.33333   0.12107
C799   C   0.00000   0.72326   0.00000   0.12107
C800   C   0.27674   0.27674   0.00000   0.12107
C801   C   0.72326   0.00000   0.00000   0.12107
C802   C   0.33333   0.66667   0.95841   0.01941
C803   C   0.66667   0.33333   0.04159   0.01941
C804   C   0.00000   0.00000   0.29174   0.01941
C805   C   0.33333   0.66667   0.37492   0.01941
C806   C   0.66667   0.33333   0.62508   0.01941
C807   C   0.00000   0.00000   0.70826   0.01941
C808   C   0.33333   0.66667   0.90399   0.01471
C809   C   0.66667   0.33333   0.09601   0.01471
C810   C   0.00000   0.00000   0.23732   0.01473
C811   C   0.33333   0.66667   0.42934   0.01473
C812   C   0.66667   0.33333   0.57066   0.01473
C813   C   0.00000   0.00000   0.76268   0.01473
N1   N   0.34577   0.49368   0.33967   -0.18601
N2   N   0.50632   0.85209   0.33967   -0.18600
N3   N   0.14791   0.65423   0.33967   -0.18600
N4   N   0.49368   0.34577   0.66033   -0.18600
N5   N   0.85209   0.50632   0.66033   -0.18601
N6   N   0.65423   0.14791   0.66033   -0.18600
N7   N   0.01244   0.82701   0.67300   -0.18600
N8   N   0.17299   0.18542   0.67300   -0.18600
N9   N   0.81458   0.98756   0.67300   -0.18600
N10   N   0.16035   0.67910   0.99366   -0.18600
N11   N   0.51876   0.83965   0.99366   -0.18601
N12   N   0.32090   0.48124   0.99366   -0.18600
N13   N   0.67910   0.16035   0.00634   -0.18601
N14   N   0.83965   0.51876   0.00634   -0.18600
N15   N   0.48124   0.32090   0.00634   -0.18601
N16   N   0.82701   0.01244   0.32700   -0.18601
N17   N   0.18542   0.17299   0.32700   -0.18600
N18   N   0.98756   0.81458   0.32700   -0.18600
N19   N   0.32234   0.50660   0.51118   -0.18829
N20   N   0.49340   0.81574   0.51118   -0.18830
N21   N   0.18426   0.67766   0.51118   -0.18829
N22   N   0.50660   0.32234   0.48882   -0.18829
N23   N   0.81574   0.49340   0.48882   -0.18829
N24   N   0.67766   0.18426   0.48882   -0.18830
N25   N   0.98901   0.83993   0.84451   -0.18829
N26   N   0.16007   0.14907   0.84451   -0.18830
N27   N   0.85093   0.01099   0.84451   -0.18829
N28   N   0.17327   0.65567   0.82215   -0.18829
N29   N   0.48241   0.82673   0.82215   -0.18830
N30   N   0.34433   0.51759   0.82215   -0.18831
N31   N   0.65567   0.17327   0.17785   -0.18830
N32   N   0.82673   0.48241   0.17785   -0.18830
N33   N   0.51759   0.34433   0.17785   -0.18829
N34   N   0.83993   0.98901   0.15549   -0.18829
N35   N   0.14907   0.16007   0.15549   -0.18829
N36   N   0.01099   0.85093   0.15549   -0.18830
F1   F   0.40744   0.45844   0.31187   -0.09834
F2   F   0.54156   0.94900   0.31187   -0.09834
F3   F   0.05100   0.59256   0.31187   -0.09834
F4   F   0.45844   0.40744   0.68813   -0.09834
F5   F   0.94900   0.54156   0.68813   -0.09834
F6   F   0.59256   0.05100   0.68813   -0.09834
F7   F   0.07411   0.79177   0.64520   -0.09834
F8   F   0.20823   0.28233   0.64520   -0.09834
F9   F   0.71767   0.92589   0.64520   -0.09834
F10   F   0.12511   0.74077   0.02146   -0.09834
F11   F   0.61567   0.87489   0.02146   -0.09834
F12   F   0.25923   0.38433   0.02146   -0.09834
F13   F   0.74077   0.12511   0.97854   -0.09834
F14   F   0.87489   0.61567   0.97854   -0.09834
F15   F   0.38433   0.25923   0.97854   -0.09834
F16   F   0.79177   0.07411   0.35480   -0.09834
F17   F   0.28233   0.20823   0.35480   -0.09834
F18   F   0.92589   0.71767   0.35480   -0.09834
F19   F   0.50470   0.36071   0.27147   -0.09654
F20   F   0.63929   0.14399   0.27147   -0.09653
F21   F   0.85601   0.49530   0.27147   -0.09654
F22   F   0.36071   0.50470   0.72853   -0.09654
F23   F   0.14399   0.63929   0.72853   -0.09653
F24   F   0.49530   0.85601   0.72853   -0.09654
F25   F   0.17137   0.69404   0.60480   -0.09654
F26   F   0.30596   0.47732   0.60480   -0.09653
F27   F   0.52268   0.82863   0.60480   -0.09654
F28   F   0.02738   0.83803   0.06186   -0.09655
F29   F   0.81066   0.97262   0.06186   -0.09655
F30   F   0.16197   0.18934   0.06186   -0.09654
F31   F   0.83803   0.02738   0.93814   -0.09654
F32   F   0.97262   0.81066   0.93814   -0.09655
F33   F   0.18934   0.16197   0.93814   -0.09654
F34   F   0.69404   0.17137   0.39520   -0.09654
F35   F   0.47732   0.30596   0.39520   -0.09653
F36   F   0.82863   0.52268   0.39520   -0.09654
H1   H   0.32838   0.61619   0.35162   0.14198
H2   H   0.38381   0.71219   0.35162   0.14198
H3   H   0.28781   0.67162   0.35162   0.14198
H4   H   0.61619   0.32838   0.64838   0.14198
H5   H   0.71219   0.38381   0.64838   0.14198
H6   H   0.67162   0.28781   0.64838   0.14198
H7   H   0.99505   0.94952   0.68495   0.14198
H8   H   0.05048   0.04552   0.68495   0.14198
H9   H   0.95448   0.00495   0.68495   0.14198
H10   H   0.28286   0.66171   0.98171   0.14198
H11   H   0.37886   0.71714   0.98171   0.14198
H12   H   0.33829   0.62114   0.98171   0.14198
H13   H   0.66171   0.28286   0.01829   0.14198
H14   H   0.71714   0.37886   0.01829   0.14198
H15   H   0.62114   0.33829   0.01829   0.14198
H16   H   0.94952   0.99505   0.31505   0.14198
H17   H   0.04552   0.05048   0.31505   0.14198
H18   H   0.00495   0.95448   0.31505   0.14198
H19   H   0.36454   0.59097   0.35374   0.13979
H20   H   0.40903   0.77357   0.35374   0.13979
H21   H   0.22643   0.63546   0.35374   0.13979
H22   H   0.59097   0.36454   0.64626   0.13979
H23   H   0.77357   0.40903   0.64626   0.13979
H24   H   0.63546   0.22643   0.64626   0.13979
H25   H   0.03121   0.92430   0.68707   0.13979
H26   H   0.07570   0.10690   0.68707   0.13979
H27   H   0.89310   0.96879   0.68707   0.13979
H28   H   0.25764   0.69787   0.97959   0.13979
H29   H   0.44024   0.74236   0.97959   0.13979
H30   H   0.30213   0.55976   0.97959   0.13979
H31   H   0.69787   0.25764   0.02041   0.13979
H32   H   0.74236   0.44024   0.02041   0.13979
H33   H   0.55976   0.30213   0.02041   0.13979
H34   H   0.92430   0.03121   0.31293   0.13979
H35   H   0.10690   0.07570   0.31293   0.13979
H36   H   0.96879   0.89310   0.31293   0.13979
H37   H   0.28191   0.53919   0.39030   0.14291
H38   H   0.46081   0.74272   0.39030   0.14291
H39   H   0.25728   0.71809   0.39030   0.14291
H40   H   0.53919   0.28191   0.60970   0.14291
H41   H   0.74272   0.46081   0.60970   0.14291
H42   H   0.71809   0.25728   0.60970   0.14290
H43   H   0.94858   0.87252   0.72363   0.14291
H44   H   0.12748   0.07605   0.72363   0.14291
H45   H   0.92395   0.05142   0.72363   0.14291
H46   H   0.20586   0.61524   0.94303   0.14291
H47   H   0.40939   0.79414   0.94303   0.14291
H48   H   0.38476   0.59061   0.94303   0.14291
H49   H   0.61524   0.20586   0.05697   0.14291
H50   H   0.79414   0.40939   0.05697   0.14291
H51   H   0.59061   0.38476   0.05697   0.14291
H52   H   0.87252   0.94858   0.27637   0.14291
H53   H   0.07605   0.12748   0.27637   0.14291
H54   H   0.05142   0.92395   0.27637   0.14291
H55   H   0.28006   0.49614   0.37209   0.13434
H56   H   0.50386   0.78392   0.37209   0.13434
H57   H   0.21608   0.71994   0.37209   0.13434
H58   H   0.49614   0.28006   0.62791   0.13434
H59   H   0.78392   0.50386   0.62791   0.13434
H60   H   0.71994   0.21608   0.62791   0.13434
H61   H   0.94673   0.82947   0.70542   0.13434
H62   H   0.17053   0.11725   0.70542   0.13434
H63   H   0.88275   0.05327   0.70542   0.13434
H64   H   0.16281   0.61339   0.96124   0.13434
H65   H   0.45059   0.83719   0.96124   0.13434
H66   H   0.38661   0.54941   0.96124   0.13434
H67   H   0.61339   0.16281   0.03876   0.13434
H68   H   0.83719   0.45059   0.03876   0.13434
H69   H   0.54941   0.38661   0.03876   0.13434
H70   H   0.82947   0.94673   0.29458   0.13434
H71   H   0.11725   0.17053   0.29458   0.13434
H72   H   0.05327   0.88275   0.29458   0.13434
H73   H   0.36303   0.54800   0.33577   0.15432
H74   H   0.45200   0.81503   0.33577   0.15432
H75   H   0.18497   0.63697   0.33577   0.15432
H76   H   0.54800   0.36303   0.66423   0.15431
H77   H   0.81503   0.45200   0.66423   0.15431
H78   H   0.63697   0.18497   0.66423   0.15432
H79   H   0.02970   0.88133   0.66910   0.15432
H80   H   0.11867   0.14836   0.66910   0.15432
H81   H   0.85164   0.97030   0.66910   0.15432
H82   H   0.21467   0.69636   0.99756   0.15431
H83   H   0.48170   0.78533   0.99756   0.15432
H84   H   0.30364   0.51830   0.99756   0.15431
H85   H   0.69636   0.21467   0.00244   0.15431
H86   H   0.78533   0.48170   0.00244   0.15432
H87   H   0.51830   0.30364   0.00244   0.15432
H88   H   0.88133   0.02970   0.33090   0.15432
H89   H   0.14836   0.11867   0.33090   0.15432
H90   H   0.97030   0.85164   0.33090   0.15432
H91   H   0.30263   0.47229   0.34897   0.10444
H92   H   0.52771   0.83034   0.34897   0.10445
H93   H   0.16966   0.69737   0.34897   0.10445
H94   H   0.47229   0.30263   0.65103   0.10445
H95   H   0.83034   0.52771   0.65103   0.10444
H96   H   0.69737   0.16966   0.65103   0.10445
H97   H   0.96930   0.80562   0.68230   0.10445
H98   H   0.19438   0.16367   0.68230   0.10444
H99   H   0.83633   0.03070   0.68230   0.10445
H100   H   0.13896   0.63596   0.98436   0.10445
H101   H   0.49701   0.86104   0.98436   0.10444
H102   H   0.36404   0.50299   0.98436   0.10444
H103   H   0.63596   0.13896   0.01564   0.10445
H104   H   0.86104   0.49701   0.01564   0.10445
H105   H   0.50299   0.36404   0.01564   0.10445
H106   H   0.80562   0.96930   0.31770   0.10445
H107   H   0.16367   0.19438   0.31770   0.10445
H108   H   0.03070   0.83633   0.31770   0.10445
H109   H   0.39039   0.49535   0.31624   0.16028
H110   H   0.50465   0.89504   0.31624   0.16028
H111   H   0.10496   0.60961   0.31624   0.16028
H112   H   0.49535   0.39039   0.68376   0.16028
H113   H   0.89504   0.50465   0.68376   0.16028
H114   H   0.60961   0.10496   0.68376   0.16028
H115   H   0.05706   0.82868   0.64957   0.16028
H116   H   0.17132   0.22837   0.64957   0.16028
H117   H   0.77163   0.94294   0.64957   0.16028
H118   H   0.16202   0.72372   0.01709   0.16028
H119   H   0.56171   0.83798   0.01709   0.16028
H120   H   0.27628   0.43829   0.01709   0.16028
H121   H   0.72372   0.16202   0.98291   0.16028
H122   H   0.83798   0.56171   0.98291   0.16028
H123   H   0.43829   0.27628   0.98291   0.16028
H124   H   0.82868   0.05706   0.35043   0.16028
H125   H   0.22837   0.17132   0.35043   0.16028
H126   H   0.94294   0.77163   0.35043   0.16028
H127   H   0.31218   0.43850   0.35814   0.13560
H128   H   0.56150   0.87368   0.35814   0.13560
H129   H   0.12632   0.68782   0.35814   0.13560
H130   H   0.43850   0.31218   0.64186   0.13560
H131   H   0.87368   0.56150   0.64186   0.13560
H132   H   0.68782   0.12632   0.64186   0.13560
H133   H   0.97885   0.77183   0.69147   0.13561
H134   H   0.22817   0.20701   0.69147   0.13560
H135   H   0.79299   0.02115   0.69147   0.13560
H136   H   0.10517   0.64551   0.97519   0.13560
H137   H   0.54035   0.89483   0.97519   0.13561
H138   H   0.35449   0.45965   0.97519   0.13561
H139   H   0.64551   0.10517   0.02481   0.13560
H140   H   0.89483   0.54035   0.02481   0.13560
H141   H   0.45965   0.35449   0.02481   0.13560
H142   H   0.77183   0.97885   0.30853   0.13561
H143   H   0.20701   0.22817   0.30853   0.13560
H144   H   0.02115   0.79299   0.30853   0.13560
H145   H   0.32342   0.40049   0.35520   0.14468
H146   H   0.59951   0.92293   0.35520   0.14468
H147   H   0.07707   0.67658   0.35520   0.14468
H148   H   0.40049   0.32342   0.64480   0.14468
H149   H   0.92293   0.59951   0.64480   0.14468
H150   H   0.67658   0.07707   0.64480   0.14468
H151   H   0.99009   0.73382   0.68853   0.14468
H152   H   0.26618   0.25626   0.68853   0.14468
H153   H   0.74374   0.00991   0.68853   0.14468
H154   H   0.06716   0.65675   0.97813   0.14468
H155   H   0.58960   0.93284   0.97813   0.14468
H156   H   0.34325   0.41040   0.97813   0.14468
H157   H   0.65675   0.06716   0.02187   0.14468
H158   H   0.93284   0.58960   0.02187   0.14468
H159   H   0.41040   0.34325   0.02187   0.14468
H160   H   0.73382   0.99009   0.31147   0.14468
H161   H   0.25626   0.26618   0.31147   0.14468
H162   H   0.00991   0.74374   0.31147   0.14468
H163   H   0.37731   0.42679   0.63053   0.14037
H164   H   0.57321   0.95052   0.63053   0.14037
H165   H   0.04948   0.62269   0.63053   0.14037
H166   H   0.42679   0.37731   0.36947   0.14037
H167   H   0.95052   0.57321   0.36947   0.14037
H168   H   0.62269   0.04948   0.36947   0.14037
H169   H   0.04398   0.76012   0.96386   0.14037
H170   H   0.23988   0.28385   0.96386   0.14037
H171   H   0.71615   0.95602   0.96386   0.14037
H172   H   0.09346   0.71064   0.70280   0.14037
H173   H   0.61719   0.90654   0.70280   0.14037
H174   H   0.28936   0.38281   0.70280   0.14037
H175   H   0.71064   0.09346   0.29720   0.14037
H176   H   0.90654   0.61719   0.29720   0.14037
H177   H   0.38281   0.28936   0.29720   0.14037
H178   H   0.76012   0.04398   0.03614   0.14037
H179   H   0.28385   0.23988   0.03614   0.14037
H180   H   0.95602   0.71615   0.03614   0.14037
H181   H   0.28869   0.39624   0.64932   0.14059
H182   H   0.60376   0.89245   0.64932   0.14059
H183   H   0.10755   0.71131   0.64932   0.14059
H184   H   0.39624   0.28869   0.35068   0.14059
H185   H   0.89245   0.60376   0.35068   0.14059
H186   H   0.71131   0.10755   0.35068   0.14059
H187   H   0.95536   0.72957   0.98265   0.14059
H188   H   0.27043   0.22578   0.98265   0.14059
H189   H   0.77422   0.04464   0.98265   0.14059
H190   H   0.06291   0.62202   0.68401   0.14059
H191   H   0.55912   0.93709   0.68401   0.14059
H192   H   0.37798   0.44088   0.68401   0.14059
H193   H   0.62202   0.06291   0.31599   0.14059
H194   H   0.93709   0.55912   0.31599   0.14059
H195   H   0.44088   0.37798   0.31599   0.14059
H196   H   0.72957   0.95536   0.01735   0.14059
H197   H   0.22578   0.27043   0.01735   0.14059
H198   H   0.04464   0.77422   0.01735   0.14059
H199   H   0.28606   0.42384   0.61151   0.14109
H200   H   0.57616   0.86222   0.61151   0.14109
H201   H   0.13778   0.71394   0.61151   0.14109
H202   H   0.42384   0.28606   0.38849   0.14109
H203   H   0.86222   0.57616   0.38849   0.14109
H204   H   0.71394   0.13778   0.38849   0.14109
H205   H   0.95273   0.75717   0.94484   0.14109
H206   H   0.24283   0.19555   0.94484   0.14109
H207   H   0.80445   0.04727   0.94484   0.14109
H208   H   0.09051   0.61939   0.72182   0.14109
H209   H   0.52889   0.90949   0.72182   0.14109
H210   H   0.38061   0.47111   0.72182   0.14109
H211   H   0.61939   0.09051   0.27818   0.14109
H212   H   0.90949   0.52889   0.27818   0.14109
H213   H   0.47111   0.38061   0.27818   0.14109
H214   H   0.75717   0.95273   0.05516   0.14109
H215   H   0.19555   0.24283   0.05516   0.14109
H216   H   0.04727   0.80445   0.05516   0.14109
H217   H   0.37443   0.45431   0.59289   0.13476
H218   H   0.54569   0.92012   0.59289   0.13476
H219   H   0.07988   0.62557   0.59289   0.13476
H220   H   0.45431   0.37443   0.40711   0.13476
H221   H   0.92012   0.54569   0.40711   0.13476
H222   H   0.62557   0.07988   0.40711   0.13476
H223   H   0.04110   0.78764   0.92622   0.13476
H224   H   0.21236   0.25345   0.92622   0.13476
H225   H   0.74655   0.95890   0.92622   0.13476
H226   H   0.12098   0.70776   0.74044   0.13476
H227   H   0.58679   0.87902   0.74044   0.13476
H228   H   0.29224   0.41321   0.74044   0.13476
H229   H   0.70776   0.12098   0.25956   0.13476
H230   H   0.87902   0.58679   0.25956   0.13476
H231   H   0.41321   0.29224   0.25956   0.13476
H232   H   0.78764   0.04110   0.07378   0.13476
H233   H   0.25345   0.21236   0.07378   0.13476
H234   H   0.95890   0.74655   0.07378   0.13476
H235   H   0.34869   0.44395   0.54715   0.14329
H236   H   0.55605   0.90474   0.54715   0.14329
H237   H   0.09526   0.65131   0.54715   0.14329
H238   H   0.44395   0.34869   0.45285   0.14329
H239   H   0.90474   0.55605   0.45285   0.14329
H240   H   0.65131   0.09526   0.45285   0.14329
H241   H   0.01536   0.77728   0.88048   0.14329
H242   H   0.22272   0.23807   0.88048   0.14329
H243   H   0.76193   0.98464   0.88048   0.14329
H244   H   0.11062   0.68202   0.78618   0.14329
H245   H   0.57141   0.88938   0.78618   0.14329
H246   H   0.31798   0.42859   0.78618   0.14329
H247   H   0.68202   0.11062   0.21382   0.14329
H248   H   0.88938   0.57141   0.21382   0.14329
H249   H   0.42859   0.31798   0.21382   0.14329
H250   H   0.77728   0.01536   0.11952   0.14329
H251   H   0.23807   0.22272   0.11952   0.14329
H252   H   0.98464   0.76193   0.11952   0.14329
H253   H   0.34540   0.47113   0.50920   0.13528
H254   H   0.52887   0.87427   0.50920   0.13528
H255   H   0.12573   0.65460   0.50920   0.13528
H256   H   0.47113   0.34540   0.49080   0.13528
H257   H   0.87427   0.52887   0.49080   0.13528
H258   H   0.65460   0.12573   0.49080   0.13528
H259   H   0.01207   0.80446   0.84253   0.13528
H260   H   0.19554   0.20760   0.84253   0.13528
H261   H   0.79240   0.98793   0.84253   0.13528
H262   H   0.13780   0.67873   0.82413   0.13528
H263   H   0.54094   0.86220   0.82413   0.13528
H264   H   0.32127   0.45906   0.82413   0.13528
H265   H   0.67873   0.13780   0.17587   0.13528
H266   H   0.86220   0.54094   0.17587   0.13528
H267   H   0.45906   0.32127   0.17587   0.13528
H268   H   0.80446   0.01207   0.15747   0.13528
H269   H   0.20760   0.19554   0.15747   0.13528
H270   H   0.98793   0.79240   0.15747   0.13528
H271   H   0.30424   0.50375   0.56141   0.16162
H272   H   0.49625   0.80049   0.56141   0.16162
H273   H   0.19951   0.69576   0.56141   0.16162
H274   H   0.50375   0.30424   0.43859   0.16162
H275   H   0.80049   0.49625   0.43859   0.16162
H276   H   0.69576   0.19951   0.43859   0.16162
H277   H   0.97091   0.83708   0.89474   0.16162
H278   H   0.16292   0.13382   0.89474   0.16162
H279   H   0.86618   0.02909   0.89474   0.16162
H280   H   0.17042   0.63757   0.77192   0.16162
H281   H   0.46716   0.82958   0.77192   0.16162
H282   H   0.36243   0.53284   0.77192   0.16162
H283   H   0.63757   0.17042   0.22808   0.16162
H284   H   0.82958   0.46716   0.22808   0.16162
H285   H   0.53284   0.36243   0.22808   0.16162
H286   H   0.83708   0.97091   0.10526   0.16162
H287   H   0.13382   0.16292   0.10526   0.16162
H288   H   0.02909   0.86618   0.10526   0.16162
H289   H   0.35152   0.50715   0.48345   0.10430
H290   H   0.49285   0.84437   0.48345   0.10430
H291   H   0.15563   0.64848   0.48345   0.10430
H292   H   0.50715   0.35152   0.51655   0.10430
H293   H   0.84437   0.49285   0.51655   0.10430
H294   H   0.64848   0.15563   0.51655   0.10430
H295   H   0.01819   0.84048   0.81678   0.10430
H296   H   0.15952   0.17770   0.81678   0.10430
H297   H   0.82230   0.98181   0.81678   0.10430
H298   H   0.17382   0.68485   0.84988   0.10430
H299   H   0.51104   0.82618   0.84988   0.10430
H300   H   0.31515   0.48896   0.84988   0.10430
H301   H   0.68485   0.17382   0.15012   0.10430
H302   H   0.82618   0.51104   0.15012   0.10430
H303   H   0.48896   0.31515   0.15012   0.10430
H304   H   0.84048   0.01819   0.18322   0.10430
H305   H   0.17770   0.15952   0.18322   0.10430
H306   H   0.98181   0.82230   0.18322   0.10430
H307   H   0.32999   0.61824   0.45337   0.14433
H308   H   0.38176   0.71175   0.45337   0.14433
H309   H   0.28825   0.67001   0.45337   0.14433
H310   H   0.61824   0.32999   0.54663   0.14433
H311   H   0.71175   0.38176   0.54663   0.14433
H312   H   0.67001   0.28825   0.54663   0.14433
H313   H   0.99666   0.95157   0.78670   0.14433
H314   H   0.04843   0.04508   0.78670   0.14433
H315   H   0.95492   0.00334   0.78670   0.14433
H316   H   0.28491   0.66332   0.87996   0.14433
H317   H   0.37842   0.71509   0.87996   0.14433
H318   H   0.33668   0.62158   0.87996   0.14433
H319   H   0.66332   0.28491   0.12004   0.14433
H320   H   0.71509   0.37842   0.12004   0.14433
H321   H   0.62158   0.33668   0.12004   0.14433
H322   H   0.95157   0.99666   0.21330   0.14433
H323   H   0.04508   0.04843   0.21330   0.14433
H324   H   0.00334   0.95492   0.21330   0.14433
H325   H   0.29202   0.56375   0.45900   0.13909
H326   H   0.43625   0.72827   0.45900   0.13909
H327   H   0.27173   0.70798   0.45900   0.13909
H328   H   0.56375   0.29202   0.54100   0.13909
H329   H   0.72827   0.43625   0.54100   0.13909
H330   H   0.70798   0.27173   0.54100   0.13909
H331   H   0.95869   0.89708   0.79233   0.13909
H332   H   0.10292   0.06160   0.79233   0.13909
H333   H   0.93840   0.04131   0.79233   0.13909
H334   H   0.23042   0.62535   0.87433   0.13909
H335   H   0.39494   0.76958   0.87433   0.13909
H336   H   0.37465   0.60506   0.87433   0.13909
H337   H   0.62535   0.23042   0.12567   0.13909
H338   H   0.76958   0.39494   0.12567   0.13909
H339   H   0.60506   0.37465   0.12567   0.13909
H340   H   0.89708   0.95869   0.20767   0.13909
H341   H   0.06160   0.10292   0.20767   0.13909
H342   H   0.04131   0.93840   0.20767   0.13909
H343   H   0.29549   0.52981   0.48932   0.15580
H344   H   0.47019   0.76568   0.48932   0.15580
H345   H   0.23432   0.70451   0.48932   0.15580
H346   H   0.52981   0.29549   0.51068   0.15580
H347   H   0.76568   0.47019   0.51068   0.15580
H348   H   0.70451   0.23432   0.51068   0.15580
H349   H   0.96216   0.86314   0.82265   0.15580
H350   H   0.13686   0.09901   0.82265   0.15580
H351   H   0.90099   0.03784   0.82265   0.15580
H352   H   0.19648   0.62882   0.84401   0.15580
H353   H   0.43235   0.80352   0.84401   0.15580
H354   H   0.37118   0.56765   0.84401   0.15580
H355   H   0.62882   0.19648   0.15599   0.15580
H356   H   0.80352   0.43235   0.15599   0.15580
H357   H   0.56765   0.37118   0.15599   0.15580
H358   H   0.86314   0.96216   0.17735   0.15580
H359   H   0.09901   0.13686   0.17735   0.15580
H360   H   0.03784   0.90099   0.17735   0.15580
H361   H   0.36460   0.57376   0.41357   0.14240
H362   H   0.42624   0.79084   0.41357   0.14240
H363   H   0.20916   0.63540   0.41357   0.14240
H364   H   0.57376   0.36460   0.58643   0.14240
H365   H   0.79084   0.42624   0.58643   0.14240
H366   H   0.63540   0.20916   0.58643   0.14240
H367   H   0.03127   0.90709   0.74690   0.14240
H368   H   0.09291   0.12417   0.74690   0.14240
H369   H   0.87583   0.96873   0.74690   0.14240
H370   H   0.24043   0.69793   0.91976   0.14240
H371   H   0.45751   0.75957   0.91976   0.14240
H372   H   0.30207   0.54249   0.91976   0.14240
H373   H   0.69793   0.24043   0.08024   0.14240
H374   H   0.75957   0.45751   0.08024   0.14240
H375   H   0.54249   0.30207   0.08024   0.14240
H376   H   0.90709   0.03127   0.25310   0.14240
H377   H   0.12417   0.09291   0.25310   0.14240
H378   H   0.96873   0.87583   0.25310   0.14240
H379   H   0.36770   0.53917   0.44345   0.13527
H380   H   0.46083   0.82853   0.44345   0.13527
H381   H   0.17147   0.63230   0.44345   0.13527
H382   H   0.53917   0.36770   0.55655   0.13527
H383   H   0.82853   0.46083   0.55655   0.13527
H384   H   0.63230   0.17147   0.55655   0.13527
H385   H   0.03437   0.87250   0.77678   0.13527
H386   H   0.12750   0.16186   0.77678   0.13527
H387   H   0.83814   0.96563   0.77678   0.13527
H388   H   0.20584   0.70103   0.88988   0.13527
H389   H   0.49520   0.79416   0.88988   0.13527
H390   H   0.29897   0.50480   0.88988   0.13527
H391   H   0.70103   0.20584   0.11012   0.13527
H392   H   0.79416   0.49520   0.11012   0.13527
H393   H   0.50480   0.29897   0.11012   0.13527
H394   H   0.87250   0.03437   0.22322   0.13527
H395   H   0.16186   0.12750   0.22322   0.13527
H396   H   0.96563   0.83814   0.22322   0.13527
H397   H   0.35300   0.37110   0.62420   0.13907
H398   H   0.62890   0.98190   0.62420   0.13907
H399   H   0.01810   0.64700   0.62420   0.13907
H400   H   0.37110   0.35300   0.37580   0.13907
H401   H   0.98190   0.62890   0.37580   0.13907
H402   H   0.64700   0.01810   0.37580   0.13907
H403   H   0.01967   0.70443   0.95753   0.13907
H404   H   0.29557   0.31523   0.95753   0.13907
H405   H   0.68477   0.98033   0.95753   0.13907
H406   H   0.03777   0.68633   0.70913   0.13907
H407   H   0.64857   0.96223   0.70913   0.13907
H408   H   0.31367   0.35143   0.70913   0.13907
H409   H   0.68633   0.03777   0.29087   0.13907
H410   H   0.96223   0.64857   0.29087   0.13907
H411   H   0.35143   0.31367   0.29087   0.13907
H412   H   0.70443   0.01967   0.04247   0.13907
H413   H   0.31523   0.29557   0.04247   0.13907
H414   H   0.98033   0.68477   0.04247   0.13907
H415   H   0.39155   0.36024   0.62360   0.13394
H416   H   0.63976   0.03131   0.62360   0.13394
H417   H   0.96869   0.60845   0.62360   0.13394
H418   H   0.36024   0.39155   0.37640   0.13394
H419   H   0.03131   0.63976   0.37640   0.13394
H420   H   0.60845   0.96869   0.37640   0.13394
H421   H   0.05822   0.69357   0.95693   0.13394
H422   H   0.30643   0.36464   0.95693   0.13394
H423   H   0.63536   0.94178   0.95693   0.13394
H424   H   0.02691   0.72488   0.70973   0.13394
H425   H   0.69798   0.97309   0.70973   0.13394
H426   H   0.27512   0.30202   0.70973   0.13394
H427   H   0.72488   0.02691   0.29027   0.13394
H428   H   0.97309   0.69798   0.29027   0.13394
H429   H   0.30202   0.27512   0.29027   0.13394
H430   H   0.69357   0.05822   0.04307   0.13394
H431   H   0.36464   0.30643   0.04307   0.13394
H432   H   0.94178   0.63536   0.04307   0.13394
H433   H   0.40719   0.38143   0.70883   0.13995
H434   H   0.61857   0.02576   0.70883   0.13995
H435   H   0.97424   0.59281   0.70883   0.13995
H436   H   0.38143   0.40719   0.29117   0.13995
H437   H   0.02576   0.61857   0.29117   0.13995
H438   H   0.59281   0.97424   0.29117   0.13995
H439   H   0.07386   0.71476   0.04216   0.13995
H440   H   0.28524   0.35909   0.04216   0.13995
H441   H   0.64091   0.92614   0.04216   0.13995
H442   H   0.04810   0.74052   0.62450   0.13995
H443   H   0.69243   0.95190   0.62450   0.13995
H444   H   0.25948   0.30757   0.62450   0.13995
H445   H   0.74052   0.04810   0.37550   0.13995
H446   H   0.95190   0.69243   0.37550   0.13995
H447   H   0.30757   0.25948   0.37550   0.13995
H448   H   0.71476   0.07386   0.95784   0.13995
H449   H   0.35909   0.28524   0.95784   0.13995
H450   H   0.92614   0.64091   0.95784   0.13995
H451   H   0.36897   0.39227   0.70975   0.14143
H452   H   0.60773   0.97670   0.70975   0.14143
H453   H   0.02330   0.63103   0.70975   0.14143
H454   H   0.39227   0.36897   0.29025   0.14143
H455   H   0.97670   0.60773   0.29025   0.14143
H456   H   0.63103   0.02330   0.29025   0.14143
H457   H   0.03564   0.72560   0.04308   0.14143
H458   H   0.27440   0.31003   0.04308   0.14143
H459   H   0.68997   0.96436   0.04308   0.14143
H460   H   0.05894   0.70230   0.62358   0.14143
H461   H   0.64337   0.94106   0.62358   0.14143
H462   H   0.29770   0.35663   0.62358   0.14143
H463   H   0.70230   0.05894   0.37642   0.14143
H464   H   0.94106   0.64337   0.37642   0.14143
H465   H   0.35663   0.29770   0.37642   0.14143
H466   H   0.72560   0.03564   0.95692   0.14143
H467   H   0.31003   0.27440   0.95692   0.14143
H468   H   0.96436   0.68997   0.95692   0.14143
H469   H   0.33333   0.66667   0.98105   0.12550
H470   H   0.66667   0.33333   0.01895   0.12550
H471   H   0.00000   0.00000   0.31438   0.12549
H472   H   0.33333   0.66667   0.35228   0.12550
H473   H   0.66667   0.33333   0.64772   0.12550
H474   H   0.00000   0.00000   0.68562   0.12549
H475   H   0.33333   0.66667   0.88134   0.12830
H476   H   0.66667   0.33333   0.11866   0.12830
H477   H   0.00000   0.00000   0.21467   0.12830
H478   H   0.33333   0.66667   0.45199   0.12829
H479   H   0.66667   0.33333   0.54801   0.12829
H480   H   0.00000   0.00000   0.78533   0.12830
