#======================================================================

# CRYSTAL DATA

#----------------------------------------------------------------------

data_VESTA_phase_1


_chemical_name_common                  ''
_cell_length_a                         49.35690
_cell_length_b                         111.45200
_cell_length_c                         36.46580
_cell_angle_alpha                      90
_cell_angle_beta                       90
_cell_angle_gamma                      90
_space_group_name_H-M_alt              'P 1'
_space_group_IT_number                 1

loop_
_space_group_symop_operation_xyz
   'x, y, z'

loop_
_atom_site_label
_atom_site_type_symbol
_atom_site_fract_x
_atom_site_fract_y
_atom_site_fract_z
_atom_site_charge
C1     C     0.22342     0.63948     0.01943     -0.067361
C2     C     0.77658     0.36052     0.98057     -0.067361
C3     C     0.77658     0.36052     0.01943     -0.067361
C4     C     0.22342     0.63948     0.98057     -0.067361
C5     C     0.27658     0.13948     0.98057     -0.067361
C6     C     0.72342     0.86052     0.01943     -0.067361
C7     C     0.72342     0.86052     0.98057     -0.067361
C8     C     0.27658     0.13948     0.01943     -0.067361
C9     C     0.72342     0.13948     0.51943     -0.067361
C10     C     0.27658     0.86052     0.48057     -0.067361
C11     C     0.27658     0.86052     0.51943     -0.067361
C12     C     0.72342     0.13948     0.48057     -0.067361
C13     C     0.77658     0.63948     0.48057     -0.067361
C14     C     0.22342     0.36052     0.51943     -0.067361
C15     C     0.22342     0.36052     0.48057     -0.067361
C16     C     0.77658     0.63948     0.51943     -0.067361
C17     C     0.27110     0.64459     0.01950     -0.029019
C18     C     0.72890     0.35541     0.98050     -0.029019
C19     C     0.72890     0.35541     0.01950     -0.029019
C20     C     0.27110     0.64459     0.98050     -0.029019
C21     C     0.22890     0.14459     0.98050     -0.029019
C22     C     0.77110     0.85541     0.01950     -0.029019
C23     C     0.77110     0.85541     0.98050     -0.029019
C24     C     0.22890     0.14459     0.01950     -0.029019
C25     C     0.77110     0.14459     0.51950     -0.029019
C26     C     0.22890     0.85541     0.48050     -0.029019
C27     C     0.22890     0.85541     0.51950     -0.029019
C28     C     0.77110     0.14459     0.48050     -0.029019
C29     C     0.72890     0.64459     0.48050     -0.029019
C30     C     0.27110     0.35541     0.51950     -0.029019
C31     C     0.27110     0.35541     0.48050     -0.029019
C32     C     0.72890     0.64459     0.51950     -0.029019
C33     C     0.24715     0.64190     0.03876     -0.095428
C34     C     0.75285     0.35810     0.96124     -0.095428
C35     C     0.75285     0.35810     0.03876     -0.095428
C36     C     0.24715     0.64190     0.96124     -0.095428
C37     C     0.25285     0.14190     0.96124     -0.095428
C38     C     0.74715     0.85810     0.03876     -0.095428
C39     C     0.74715     0.85810     0.96124     -0.095428
C40     C     0.25285     0.14190     0.03876     -0.095428
C41     C     0.74715     0.14190     0.53876     -0.095428
C42     C     0.25285     0.85810     0.46124     -0.095428
C43     C     0.25285     0.85810     0.53876     -0.095428
C44     C     0.74715     0.14190     0.46124     -0.095428
C45     C     0.75285     0.64190     0.46124     -0.095428
C46     C     0.24715     0.35810     0.53876     -0.095428
C47     C     0.24715     0.35810     0.46124     -0.095428
C48     C     0.75285     0.64190     0.53876     -0.095428
C49     C     0.29459     0.64905     0.04051     -0.000761
C50     C     0.70541     0.35095     0.95949     -0.000761
C51     C     0.70541     0.35095     0.04051     -0.000761
C52     C     0.29459     0.64905     0.95949     -0.000761
C53     C     0.20541     0.14905     0.95949     -0.000761
C54     C     0.79459     0.85095     0.04051     -0.000761
C55     C     0.79459     0.85095     0.95949     -0.000761
C56     C     0.20541     0.14905     0.04051     -0.000761
C57     C     0.79459     0.14905     0.54051     -0.000761
C58     C     0.20541     0.85095     0.45949     -0.000761
C59     C     0.20541     0.85095     0.54051     -0.000761
C60     C     0.79459     0.14905     0.45949     -0.000761
C61     C     0.70541     0.64905     0.45949     -0.000761
C62     C     0.29459     0.35095     0.54051     -0.000761
C63     C     0.29459     0.35095     0.45949     -0.000761
C64     C     0.70541     0.64905     0.54051     -0.000761
C65     C     0.33935     0.65807     0.07971     -0.097254
C66     C     0.66065     0.34193     0.92029     -0.097254
C67     C     0.66065     0.34193     0.07971     -0.097254
C68     C     0.33935     0.65807     0.92029     -0.097254
C69     C     0.16065     0.15807     0.92029     -0.097254
C70     C     0.83935     0.84193     0.07971     -0.097254
C71     C     0.83935     0.84193     0.92029     -0.097254
C72     C     0.16065     0.15807     0.07971     -0.097254
C73     C     0.83935     0.15807     0.57971     -0.097254
C74     C     0.16065     0.84193     0.42029     -0.097254
C75     C     0.16065     0.84193     0.57971     -0.097254
C76     C     0.83935     0.15807     0.42029     -0.097254
C77     C     0.66065     0.65807     0.42029     -0.097254
C78     C     0.33935     0.34193     0.57971     -0.097254
C79     C     0.33935     0.34193     0.42029     -0.097254
C80     C     0.66065     0.65807     0.57971     -0.097254
C81     C     0.36305     0.66289     0.09971     0.01124
C82     C     0.63695     0.33711     0.90029     0.01124
C83     C     0.63695     0.33711     0.09971     0.01124
C84     C     0.36305     0.66289     0.90029     0.01124
C85     C     0.13695     0.16289     0.90029     0.01124
C86     C     0.86305     0.83711     0.09971     0.01124
C87     C     0.86305     0.83711     0.90029     0.01124
C88     C     0.13695     0.16289     0.09971     0.01124
C89     C     0.86305     0.16289     0.59971     0.01124
C90     C     0.13695     0.83711     0.40029     0.01124
C91     C     0.13695     0.83711     0.59971     0.01124
C92     C     0.86305     0.16289     0.40029     0.01124
C93     C     0.63695     0.66289     0.40029     0.01124
C94     C     0.36305     0.33711     0.59971     0.01124
C95     C     0.36305     0.33711     0.40029     0.01124
C96     C     0.63695     0.66289     0.59971     0.01124
C97     C     0.48040     0.71479     0.22962     -0.061893
C98     C     0.51960     0.28521     0.77038     -0.061893
C99     C     0.51960     0.28521     0.22962     -0.061893
C100     C     0.48040     0.71479     0.77038     -0.061893
C101     C     0.01960     0.21479     0.77038     -0.061893
C102     C     0.98040     0.78521     0.22962     -0.061893
C103     C     0.98040     0.78521     0.77038     -0.061893
C104     C     0.01960     0.21479     0.22962     -0.061893
C105     C     0.98040     0.21479     0.72962     -0.061893
C106     C     0.01960     0.78521     0.27038     -0.061893
C107     C     0.01960     0.78521     0.72962     -0.061893
C108     C     0.98040     0.21479     0.27038     -0.061893
C109     C     0.51960     0.71479     0.27038     -0.061893
C110     C     0.48040     0.28521     0.72962     -0.061893
C111     C     0.48040     0.28521     0.27038     -0.061893
C112     C     0.51960     0.71479     0.72962     -0.061893
C113     C     0.01722     0.50866     0.22648     -0.062519
C114     C     0.98278     0.49134     0.77352     -0.062519
C115     C     0.98278     0.49134     0.22648     -0.062519
C116     C     0.01722     0.50866     0.77352     -0.062519
C117     C     0.48278     0.00866     0.77352     -0.062519
C118     C     0.51722     0.99134     0.22648     -0.062519
C119     C     0.51722     0.99134     0.77352     -0.062519
C120     C     0.48278     0.00866     0.22648     -0.062519
C121     C     0.51722     0.00866     0.72648     -0.062519
C122     C     0.48278     0.99134     0.27352     -0.062519
C123     C     0.48278     0.99134     0.72648     -0.062519
C124     C     0.51722     0.00866     0.27352     -0.062519
C125     C     0.98278     0.50866     0.27352     -0.062519
C126     C     0.01722     0.49134     0.72648     -0.062519
C127     C     0.01722     0.49134     0.27352     -0.062519
C128     C     0.98278     0.50866     0.72648     -0.062519
C129     C     0.04587     0.52654     0.18685     -0.040063
C130     C     0.95413     0.47346     0.81315     -0.040063
C131     C     0.95413     0.47346     0.18685     -0.040063
C132     C     0.04587     0.52654     0.81315     -0.040063
C133     C     0.45413     0.02654     0.81315     -0.040063
C134     C     0.54587     0.97346     0.18685     -0.040063
C135     C     0.54587     0.97346     0.81315     -0.040063
C136     C     0.45413     0.02654     0.18685     -0.040063
C137     C     0.54587     0.02654     0.68685     -0.040063
C138     C     0.45413     0.97346     0.31315     -0.040063
C139     C     0.45413     0.97346     0.68685     -0.040063
C140     C     0.54587     0.02654     0.31315     -0.040063
C141     C     0.95413     0.52654     0.31315     -0.040063
C142     C     0.04587     0.47346     0.68685     -0.040063
C143     C     0.04587     0.47346     0.31315     -0.040063
C144     C     0.95413     0.52654     0.68685     -0.040063
C145     C     0.06050     0.53605     0.16637     -0.067227
C146     C     0.93950     0.46395     0.83363     -0.067227
C147     C     0.93950     0.46395     0.16637     -0.067227
C148     C     0.06050     0.53605     0.83363     -0.067227
C149     C     0.43950     0.03605     0.83363     -0.067227
C150     C     0.56050     0.96395     0.16637     -0.067227
C151     C     0.56050     0.96395     0.83363     -0.067227
C152     C     0.43950     0.03605     0.16637     -0.067227
C153     C     0.56050     0.03605     0.66637     -0.067227
C154     C     0.43950     0.96395     0.33363     -0.067227
C155     C     0.43950     0.96395     0.66637     -0.067227
C156     C     0.56050     0.03605     0.33363     -0.067227
C157     C     0.93950     0.53605     0.33363     -0.067227
C158     C     0.06050     0.46395     0.66637     -0.067227
C159     C     0.06050     0.46395     0.33363     -0.067227
C160     C     0.93950     0.53605     0.66637     -0.067227
C161     C     0.09440     0.57429     0.10129     -0.000959
C162     C     0.90560     0.42571     0.89871     -0.000959
C163     C     0.90560     0.42571     0.10129     -0.000959
C164     C     0.09440     0.57429     0.89871     -0.000959
C165     C     0.40560     0.07429     0.89871     -0.000959
C166     C     0.59440     0.92571     0.10129     -0.000959
C167     C     0.59440     0.92571     0.89871     -0.000959
C168     C     0.40560     0.07429     0.10129     -0.000959
C169     C     0.59440     0.07429     0.60129     -0.000959
C170     C     0.40560     0.92571     0.39871     -0.000959
C171     C     0.40560     0.92571     0.60129     -0.000959
C172     C     0.59440     0.07429     0.39871     -0.000959
C173     C     0.90560     0.57429     0.39871     -0.000959
C174     C     0.09440     0.42571     0.60129     -0.000959
C175     C     0.09440     0.42571     0.39871     -0.000959
C176     C     0.90560     0.57429     0.60129     -0.000959
C177     C     0.11118     0.58287     0.08023     -0.096371
C178     C     0.88882     0.41713     0.91977     -0.096371
C179     C     0.88882     0.41713     0.08023     -0.096371
C180     C     0.11118     0.58287     0.91977     -0.096371
C181     C     0.38882     0.08287     0.91977     -0.096371
C182     C     0.61118     0.91713     0.08023     -0.096371
C183     C     0.61118     0.91713     0.91977     -0.096371
C184     C     0.38882     0.08287     0.08023     -0.096371
C185     C     0.61118     0.08287     0.58023     -0.096371
C186     C     0.38882     0.91713     0.41977     -0.096371
C187     C     0.38882     0.91713     0.58023     -0.096371
C188     C     0.61118     0.08287     0.41977     -0.096371
C189     C     0.88882     0.58287     0.41977     -0.096371
C190     C     0.11118     0.41713     0.58023     -0.096371
C191     C     0.11118     0.41713     0.41977     -0.096371
C192     C     0.88882     0.58287     0.58023     -0.096371
C193     C     0.14151     0.59986     0.04042     -0.000737
C194     C     0.85849     0.40014     0.95958     -0.000737
C195     C     0.85849     0.40014     0.04042     -0.000737
C196     C     0.14151     0.59986     0.95958     -0.000737
C197     C     0.35849     0.09986     0.95958     -0.000737
C198     C     0.64151     0.90014     0.04042     -0.000737
C199     C     0.64151     0.90014     0.95958     -0.000737
C200     C     0.35849     0.09986     0.04042     -0.000737
C201     C     0.64151     0.09986     0.54042     -0.000737
C202     C     0.35849     0.90014     0.45958     -0.000737
C203     C     0.35849     0.90014     0.54042     -0.000737
C204     C     0.64151     0.09986     0.45958     -0.000737
C205     C     0.85849     0.59986     0.45958     -0.000737
C206     C     0.14151     0.40014     0.54042     -0.000737
C207     C     0.14151     0.40014     0.45958     -0.000737
C208     C     0.85849     0.59986     0.54042     -0.000737
C209     C     0.17007     0.61812     0.03878     -0.095599
C210     C     0.82993     0.38188     0.96122     -0.095599
C211     C     0.82993     0.38188     0.03878     -0.095599
C212     C     0.17007     0.61812     0.96122     -0.095599
C213     C     0.32993     0.11812     0.96122     -0.095599
C214     C     0.67007     0.88188     0.03878     -0.095599
C215     C     0.67007     0.88188     0.96122     -0.095599
C216     C     0.32993     0.11812     0.03878     -0.095599
C217     C     0.67007     0.11812     0.53878     -0.095599
C218     C     0.32993     0.88188     0.46122     -0.095599
C219     C     0.32993     0.88188     0.53878     -0.095599
C220     C     0.67007     0.11812     0.46122     -0.095599
C221     C     0.82993     0.61812     0.46122     -0.095599
C222     C     0.17007     0.38188     0.53878     -0.095599
C223     C     0.17007     0.38188     0.46122     -0.095599
C224     C     0.82993     0.61812     0.53878     -0.095599
C225     C     0.15710     0.60883     0.01947     -0.029739
C226     C     0.84290     0.39117     0.98053     -0.029739
C227     C     0.84290     0.39117     0.01947     -0.029739
C228     C     0.15710     0.60883     0.98053     -0.029739
C229     C     0.34290     0.10883     0.98053     -0.029739
C230     C     0.65710     0.89117     0.01947     -0.029739
C231     C     0.65710     0.89117     0.98053     -0.029739
C232     C     0.34290     0.10883     0.01947     -0.029739
C233     C     0.65710     0.10883     0.51947     -0.029739
C234     C     0.34290     0.89117     0.48053     -0.029739
C235     C     0.34290     0.89117     0.51947     -0.029739
C236     C     0.65710     0.10883     0.48053     -0.029739
C237     C     0.84290     0.60883     0.48053     -0.029739
C238     C     0.15710     0.39117     0.51947     -0.029739
C239     C     0.15710     0.39117     0.48053     -0.029739
C240     C     0.84290     0.60883     0.51947     -0.029739
C241     C     0.18271     0.62733     0.01942     -0.066772
C242     C     0.81729     0.37267     0.98058     -0.066772
C243     C     0.81729     0.37267     0.01942     -0.066772
C244     C     0.18271     0.62733     0.98058     -0.066772
C245     C     0.31729     0.12733     0.98058     -0.066772
C246     C     0.68271     0.87267     0.01942     -0.066772
C247     C     0.68271     0.87267     0.98058     -0.066772
C248     C     0.31729     0.12733     0.01942     -0.066772
C249     C     0.68271     0.12733     0.51942     -0.066772
C250     C     0.31729     0.87267     0.48058     -0.066772
C251     C     0.31729     0.87267     0.51942     -0.066772
C252     C     0.68271     0.12733     0.48058     -0.066772
C253     C     0.81729     0.62733     0.48058     -0.066772
C254     C     0.18271     0.37267     0.51942     -0.066772
C255     C     0.18271     0.37267     0.48058     -0.066772
C256     C     0.81729     0.62733     0.51942     -0.066772
C257     C     0.17964     0.64893     0.01944     -0.069126
C258     C     0.82036     0.35107     0.98056     -0.069126
C259     C     0.82036     0.35107     0.01944     -0.069126
C260     C     0.17964     0.64893     0.98056     -0.069126
C261     C     0.32036     0.14893     0.98056     -0.069126
C262     C     0.67964     0.85107     0.01944     -0.069126
C263     C     0.67964     0.85107     0.98056     -0.069126
C264     C     0.32036     0.14893     0.01944     -0.069126
C265     C     0.67964     0.14893     0.51944     -0.069126
C266     C     0.32036     0.85107     0.48056     -0.069126
C267     C     0.32036     0.85107     0.51944     -0.069126
C268     C     0.67964     0.14893     0.48056     -0.069126
C269     C     0.82036     0.64893     0.48056     -0.069126
C270     C     0.17964     0.35107     0.51944     -0.069126
C271     C     0.17964     0.35107     0.48056     -0.069126
C272     C     0.82036     0.64893     0.51944     -0.069126
C273     C     0.16758     0.65829     0.03879     -0.097785
C274     C     0.83242     0.34171     0.96121     -0.097785
C275     C     0.83242     0.34171     0.03879     -0.097785
C276     C     0.16758     0.65829     0.96121     -0.097785
C277     C     0.33242     0.15829     0.96121     -0.097785
C278     C     0.66758     0.84171     0.03879     -0.097785
C279     C     0.66758     0.84171     0.96121     -0.097785
C280     C     0.33242     0.15829     0.03879     -0.097785
C281     C     0.66758     0.15829     0.53879     -0.097785
C282     C     0.33242     0.84171     0.46121     -0.097785
C283     C     0.33242     0.84171     0.53879     -0.097785
C284     C     0.66758     0.15829     0.46121     -0.097785
C285     C     0.83242     0.65829     0.46121     -0.097785
C286     C     0.16758     0.34171     0.53879     -0.097785
C287     C     0.16758     0.34171     0.46121     -0.097785
C288     C     0.83242     0.65829     0.53879     -0.097785
C289     C     0.15542     0.66781     0.01950     -0.030025
C290     C     0.84458     0.33219     0.98050     -0.030025
C291     C     0.84458     0.33219     0.01950     -0.030025
C292     C     0.15542     0.66781     0.98050     -0.030025
C293     C     0.34458     0.16781     0.98050     -0.030025
C294     C     0.65542     0.83219     0.01950     -0.030025
C295     C     0.65542     0.83219     0.98050     -0.030025
C296     C     0.34458     0.16781     0.01950     -0.030025
C297     C     0.65542     0.16781     0.51950     -0.030025
C298     C     0.34458     0.83219     0.48050     -0.030025
C299     C     0.34458     0.83219     0.51950     -0.030025
C300     C     0.65542     0.16781     0.48050     -0.030025
C301     C     0.84458     0.66781     0.48050     -0.030025
C302     C     0.15542     0.33219     0.51950     -0.030025
C303     C     0.15542     0.33219     0.48050     -0.030025
C304     C     0.84458     0.66781     0.51950     -0.030025
C305     C     0.14486     0.67809     0.04063     -0.000869
C306     C     0.85514     0.32191     0.95937     -0.000869
C307     C     0.85514     0.32191     0.04063     -0.000869
C308     C     0.14486     0.67809     0.95937     -0.000869
C309     C     0.35514     0.17809     0.95937     -0.000869
C310     C     0.64486     0.82191     0.04063     -0.000869
C311     C     0.64486     0.82191     0.95937     -0.000869
C312     C     0.35514     0.17809     0.04063     -0.000869
C313     C     0.64486     0.17809     0.54063     -0.000869
C314     C     0.35514     0.82191     0.45937     -0.000869
C315     C     0.35514     0.82191     0.54063     -0.000869
C316     C     0.64486     0.17809     0.45937     -0.000869
C317     C     0.85514     0.67809     0.45937     -0.000869
C318     C     0.14486     0.32191     0.54063     -0.000869
C319     C     0.14486     0.32191     0.45937     -0.000869
C320     C     0.85514     0.67809     0.54063     -0.000869
C321     C     0.12515     0.69781     0.08084     -0.09594
C322     C     0.87485     0.30219     0.91916     -0.09594
C323     C     0.87485     0.30219     0.08084     -0.09594
C324     C     0.12515     0.69781     0.91916     -0.09594
C325     C     0.37485     0.19781     0.91916     -0.09594
C326     C     0.62515     0.80219     0.08084     -0.09594
C327     C     0.62515     0.80219     0.91916     -0.09594
C328     C     0.37485     0.19781     0.08084     -0.09594
C329     C     0.62515     0.19781     0.58084     -0.09594
C330     C     0.37485     0.80219     0.41916     -0.09594
C331     C     0.37485     0.80219     0.58084     -0.09594
C332     C     0.62515     0.19781     0.41916     -0.09594
C333     C     0.87485     0.69781     0.41916     -0.09594
C334     C     0.12515     0.30219     0.58084     -0.09594
C335     C     0.12515     0.30219     0.41916     -0.09594
C336     C     0.87485     0.69781     0.58084     -0.09594
C337     C     0.11503     0.70811     0.10228     0.003788
C338     C     0.88497     0.29189     0.89772     0.003788
C339     C     0.88497     0.29189     0.10228     0.003788
C340     C     0.11503     0.70811     0.89772     0.003788
C341     C     0.38497     0.20811     0.89772     0.003788
C342     C     0.61503     0.79189     0.10228     0.003788
C343     C     0.61503     0.79189     0.89772     0.003788
C344     C     0.38497     0.20811     0.10228     0.003788
C345     C     0.61503     0.20811     0.60228     0.003788
C346     C     0.38497     0.79189     0.39772     0.003788
C347     C     0.38497     0.79189     0.60228     0.003788
C348     C     0.61503     0.20811     0.39772     0.003788
C349     C     0.88497     0.70811     0.39772     0.003788
C350     C     0.11503     0.29189     0.60228     0.003788
C351     C     0.11503     0.29189     0.39772     0.003788
C352     C     0.88497     0.70811     0.60228     0.003788
C353     C     0.07851     0.72156     0.11894     0.022689
C354     C     0.92149     0.27844     0.88106     0.022689
C355     C     0.92149     0.27844     0.11894     0.022689
C356     C     0.07851     0.72156     0.88106     0.022689
C357     C     0.42149     0.22156     0.88106     0.022689
C358     C     0.57851     0.77844     0.11894     0.022689
C359     C     0.57851     0.77844     0.88106     0.022689
C360     C     0.42149     0.22156     0.11894     0.022689
C361     C     0.57851     0.22156     0.61894     0.022689
C362     C     0.42149     0.77844     0.38106     0.022689
C363     C     0.42149     0.77844     0.61894     0.022689
C364     C     0.57851     0.22156     0.38106     0.022689
C365     C     0.92149     0.72156     0.38106     0.022689
C366     C     0.07851     0.27844     0.61894     0.022689
C367     C     0.07851     0.27844     0.38106     0.022689
C368     C     0.92149     0.72156     0.61894     0.022689
C369     C     0.05348     0.74032     0.15847     -0.068175
C370     C     0.94652     0.25968     0.84153     -0.068175
C371     C     0.94652     0.25968     0.15847     -0.068175
C372     C     0.05348     0.74032     0.84153     -0.068175
C373     C     0.44652     0.24032     0.84153     -0.068175
C374     C     0.55348     0.75968     0.15847     -0.068175
C375     C     0.55348     0.75968     0.84153     -0.068175
C376     C     0.44652     0.24032     0.15847     -0.068175
C377     C     0.55348     0.24032     0.65847     -0.068175
C378     C     0.44652     0.75968     0.34153     -0.068175
C379     C     0.44652     0.75968     0.65847     -0.068175
C380     C     0.55348     0.24032     0.34153     -0.068175
C381     C     0.94652     0.74032     0.34153     -0.068175
C382     C     0.05348     0.25968     0.65847     -0.068175
C383     C     0.05348     0.25968     0.34153     -0.068175
C384     C     0.94652     0.74032     0.65847     -0.068175
C385     C     0.04028     0.75005     0.17993     -0.039182
C386     C     0.95972     0.24995     0.82007     -0.039182
C387     C     0.95972     0.24995     0.17993     -0.039182
C388     C     0.04028     0.75005     0.82007     -0.039182
C389     C     0.45972     0.25005     0.82007     -0.039182
C390     C     0.54028     0.74995     0.17993     -0.039182
C391     C     0.54028     0.74995     0.82007     -0.039182
C392     C     0.45972     0.25005     0.17993     -0.039182
C393     C     0.54028     0.25005     0.67993     -0.039182
C394     C     0.45972     0.74995     0.32007     -0.039182
C395     C     0.45972     0.74995     0.67993     -0.039182
C396     C     0.54028     0.25005     0.32007     -0.039182
C397     C     0.95972     0.75005     0.32007     -0.039182
C398     C     0.04028     0.24995     0.67993     -0.039182
C399     C     0.04028     0.24995     0.32007     -0.039182
C400     C     0.95972     0.75005     0.67993     -0.039182
C401     C     0.01502     0.76801     0.22357     -0.061812
C402     C     0.98498     0.23199     0.77643     -0.061812
C403     C     0.98498     0.23199     0.22357     -0.061812
C404     C     0.01502     0.76801     0.77643     -0.061812
C405     C     0.48498     0.26801     0.77643     -0.061812
C406     C     0.51502     0.73199     0.22357     -0.061812
C407     C     0.51502     0.73199     0.77643     -0.061812
C408     C     0.48498     0.26801     0.22357     -0.061812
C409     C     0.51502     0.26801     0.72357     -0.061812
C410     C     0.48498     0.73199     0.27643     -0.061812
C411     C     0.48498     0.73199     0.72357     -0.061812
C412     C     0.51502     0.26801     0.27643     -0.061812
C413     C     0.98498     0.76801     0.27643     -0.061812
C414     C     0.01502     0.23199     0.72357     -0.061812
C415     C     0.01502     0.23199     0.27643     -0.061812
C416     C     0.98498     0.76801     0.72357     -0.061812
C417     C     0.19528     0.63851     0.03661     0.017131
C418     C     0.80472     0.36149     0.96339     0.017131
C419     C     0.80472     0.36149     0.03661     0.017131
C420     C     0.19528     0.63851     0.96339     0.017131
C421     C     0.30472     0.13851     0.96339     0.017131
C422     C     0.69528     0.86149     0.03661     0.017131
C423     C     0.69528     0.86149     0.96339     0.017131
C424     C     0.30472     0.13851     0.03661     0.017131
C425     C     0.69528     0.13851     0.53661     0.017131
C426     C     0.30472     0.86149     0.46339     0.017131
C427     C     0.30472     0.86149     0.53661     0.017131
C428     C     0.69528     0.13851     0.46339     0.017131
C429     C     0.80472     0.63851     0.46339     0.017131
C430     C     0.19528     0.36149     0.53661     0.017131
C431     C     0.19528     0.36149     0.46339     0.017131
C432     C     0.80472     0.63851     0.53661     0.017131
C433     C     0.39881     0.09453     0.07469     -0.085271
C434     C     0.60119     0.90547     0.92531     -0.085271
C435     C     0.60119     0.90547     0.07469     -0.085271
C436     C     0.39881     0.09453     0.92531     -0.085271
C437     C     0.10119     0.59453     0.92531     -0.085271
C438     C     0.89881     0.40547     0.07469     -0.085271
C439     C     0.89881     0.40547     0.92531     -0.085271
C440     C     0.10119     0.59453     0.07469     -0.085271
C441     C     0.89881     0.59453     0.57469     -0.085271
C442     C     0.10119     0.40547     0.42531     -0.085271
C443     C     0.10119     0.40547     0.57469     -0.085271
C444     C     0.89881     0.59453     0.42531     -0.085271
C445     C     0.60119     0.09453     0.42531     -0.085271
C446     C     0.39881     0.90547     0.57469     -0.085271
C447     C     0.39881     0.90547     0.42531     -0.085271
C448     C     0.60119     0.09453     0.57469     -0.085271
C449     C     0.38377     0.10295     0.05500     -0.143449
C450     C     0.61623     0.89705     0.94500     -0.143449
C451     C     0.61623     0.89705     0.05500     -0.143449
C452     C     0.38377     0.10295     0.94500     -0.143449
C453     C     0.11623     0.60295     0.94500     -0.143449
C454     C     0.88377     0.39705     0.05500     -0.143449
C455     C     0.88377     0.39705     0.94500     -0.143449
C456     C     0.11623     0.60295     0.05500     -0.143449
C457     C     0.88377     0.60295     0.55500     -0.143449
C458     C     0.11623     0.39705     0.44500     -0.143449
C459     C     0.11623     0.39705     0.55500     -0.143449
C460     C     0.88377     0.60295     0.44500     -0.143449
C461     C     0.61623     0.10295     0.44500     -0.143449
C462     C     0.38377     0.89705     0.55500     -0.143449
C463     C     0.38377     0.89705     0.44500     -0.143449
C464     C     0.61623     0.10295     0.55500     -0.143449
C465     C     0.34826     0.08827     0.04589     -0.164456
C466     C     0.65174     0.91173     0.95411     -0.164456
C467     C     0.65174     0.91173     0.04589     -0.164456
C468     C     0.34826     0.08827     0.95411     -0.164456
C469     C     0.15174     0.58827     0.95411     -0.164456
C470     C     0.84826     0.41173     0.04589     -0.164456
C471     C     0.84826     0.41173     0.95411     -0.164456
C472     C     0.15174     0.58827     0.04589     -0.164456
C473     C     0.84826     0.58827     0.54589     -0.164456
C474     C     0.15174     0.41173     0.45411     -0.164456
C475     C     0.15174     0.41173     0.54589     -0.164456
C476     C     0.84826     0.58827     0.45411     -0.164456
C477     C     0.65174     0.08827     0.45411     -0.164456
C478     C     0.34826     0.91173     0.54589     -0.164456
C479     C     0.34826     0.91173     0.45411     -0.164456
C480     C     0.65174     0.08827     0.54589     -0.164456
C481     C     0.36327     0.07978     0.06558     0.148374
C482     C     0.63673     0.92022     0.93442     0.148374
C483     C     0.63673     0.92022     0.06558     0.148374
C484     C     0.36327     0.07978     0.93442     0.148374
C485     C     0.13673     0.57978     0.93442     0.148374
C486     C     0.86327     0.42022     0.06558     0.148374
C487     C     0.86327     0.42022     0.93442     0.148374
C488     C     0.13673     0.57978     0.06558     0.148374
C489     C     0.86327     0.57978     0.56558     0.148374
C490     C     0.13673     0.42022     0.43442     0.148374
C491     C     0.13673     0.42022     0.56558     0.148374
C492     C     0.86327     0.57978     0.43442     0.148374
C493     C     0.63673     0.07978     0.43442     0.148374
C494     C     0.36327     0.92022     0.56558     0.148374
C495     C     0.36327     0.92022     0.43442     0.148374
C496     C     0.63673     0.07978     0.56558     0.148374
C497     C     0.15967     0.14655     0.06396     0.116557
C498     C     0.84033     0.85345     0.93604     0.116557
C499     C     0.84033     0.85345     0.06396     0.116557
C500     C     0.15967     0.14655     0.93604     0.116557
C501     C     0.34033     0.64655     0.93604     0.116557
C502     C     0.65967     0.35345     0.06396     0.116557
C503     C     0.65967     0.35345     0.93604     0.116557
C504     C     0.34033     0.64655     0.06396     0.116557
C505     C     0.65967     0.64655     0.56396     0.116557
C506     C     0.34033     0.35345     0.43604     0.116557
C507     C     0.34033     0.35345     0.56396     0.116557
C508     C     0.65967     0.64655     0.43604     0.116557
C509     C     0.84033     0.14655     0.43604     0.116557
C510     C     0.15967     0.85345     0.56396     0.116557
C511     C     0.15967     0.85345     0.43604     0.116557
C512     C     0.84033     0.14655     0.56396     0.116557
C513     C     0.18204     0.14205     0.04477     -0.158943
C514     C     0.81796     0.85795     0.95523     -0.158943
C515     C     0.81796     0.85795     0.04477     -0.158943
C516     C     0.18204     0.14205     0.95523     -0.158943
C517     C     0.31796     0.64205     0.95523     -0.158943
C518     C     0.68204     0.35795     0.04477     -0.158943
C519     C     0.68204     0.35795     0.95523     -0.158943
C520     C     0.31796     0.64205     0.04477     -0.158943
C521     C     0.68204     0.64205     0.54477     -0.158943
C522     C     0.31796     0.35795     0.45523     -0.158943
C523     C     0.31796     0.35795     0.54477     -0.158943
C524     C     0.68204     0.64205     0.45523     -0.158943
C525     C     0.81796     0.14205     0.45523     -0.158943
C526     C     0.18204     0.85795     0.54477     -0.158943
C527     C     0.18204     0.85795     0.45523     -0.158943
C528     C     0.81796     0.14205     0.54477     -0.158943
C529     C     0.20651     0.16048     0.05638     -0.144625
C530     C     0.79349     0.83952     0.94362     -0.144625
C531     C     0.79349     0.83952     0.05638     -0.144625
C532     C     0.20651     0.16048     0.94362     -0.144625
C533     C     0.29349     0.66048     0.94362     -0.144625
C534     C     0.70651     0.33952     0.05638     -0.144625
C535     C     0.70651     0.33952     0.94362     -0.144625
C536     C     0.29349     0.66048     0.05638     -0.144625
C537     C     0.70651     0.66048     0.55638     -0.144625
C538     C     0.29349     0.33952     0.44362     -0.144625
C539     C     0.29349     0.33952     0.55638     -0.144625
C540     C     0.70651     0.66048     0.44362     -0.144625
C541     C     0.79349     0.16048     0.44362     -0.144625
C542     C     0.20651     0.83952     0.55638     -0.144625
C543     C     0.20651     0.83952     0.44362     -0.144625
C544     C     0.79349     0.16048     0.55638     -0.144625
C545     C     0.18437     0.16496     0.07585     -0.056006
C546     C     0.81563     0.83504     0.92415     -0.056006
C547     C     0.81563     0.83504     0.07585     -0.056006
C548     C     0.18437     0.16496     0.92415     -0.056006
C549     C     0.31563     0.66496     0.92415     -0.056006
C550     C     0.68437     0.33504     0.07585     -0.056006
C551     C     0.68437     0.33504     0.92415     -0.056006
C552     C     0.31563     0.66496     0.07585     -0.056006
C553     C     0.68437     0.66496     0.57585     -0.056006
C554     C     0.31563     0.33504     0.42415     -0.056006
C555     C     0.31563     0.33504     0.57585     -0.056006
C556     C     0.68437     0.66496     0.42415     -0.056006
C557     C     0.81563     0.16496     0.42415     -0.056006
C558     C     0.18437     0.83504     0.57585     -0.056006
C559     C     0.18437     0.83504     0.42415     -0.056006
C560     C     0.81563     0.16496     0.57585     -0.056006
C561     C     0.01913     0.21318     0.19117     -0.120504
C562     C     0.98087     0.78682     0.80883     -0.120504
C563     C     0.98087     0.78682     0.19117     -0.120504
C564     C     0.01913     0.21318     0.80883     -0.120504
C565     C     0.48087     0.71318     0.80883     -0.120504
C566     C     0.51913     0.28682     0.19117     -0.120504
C567     C     0.51913     0.28682     0.80883     -0.120504
C568     C     0.48087     0.71318     0.19117     -0.120504
C569     C     0.51913     0.71318     0.69117     -0.120504
C570     C     0.48087     0.28682     0.30883     -0.120504
C571     C     0.48087     0.28682     0.69117     -0.120504
C572     C     0.51913     0.71318     0.30883     -0.120504
C573     C     0.98087     0.21318     0.30883     -0.120504
C574     C     0.01913     0.78682     0.69117     -0.120504
C575     C     0.01913     0.78682     0.30883     -0.120504
C576     C     0.98087     0.21318     0.69117     -0.120504
C577     C     0.03759     0.20553     0.17392     -0.115148
C578     C     0.96241     0.79447     0.82608     -0.115148
C579     C     0.96241     0.79447     0.17392     -0.115148
C580     C     0.03759     0.20553     0.82608     -0.115148
C581     C     0.46241     0.70553     0.82608     -0.115148
C582     C     0.53759     0.29447     0.17392     -0.115148
C583     C     0.53759     0.29447     0.82608     -0.115148
C584     C     0.46241     0.70553     0.17392     -0.115148
C585     C     0.53759     0.70553     0.67392     -0.115148
C586     C     0.46241     0.29447     0.32608     -0.115148
C587     C     0.46241     0.29447     0.67392     -0.115148
C588     C     0.53759     0.70553     0.32608     -0.115148
C589     C     0.96241     0.20553     0.32608     -0.115148
C590     C     0.03759     0.79447     0.67392     -0.115148
C591     C     0.03759     0.79447     0.32608     -0.115148
C592     C     0.96241     0.20553     0.67392     -0.115148
C593     C     0.05663     0.19908     0.19455     -0.042533
C594     C     0.94337     0.80092     0.80545     -0.042533
C595     C     0.94337     0.80092     0.19455     -0.042533
C596     C     0.05663     0.19908     0.80545     -0.042533
C597     C     0.44337     0.69908     0.80545     -0.042533
C598     C     0.55663     0.30092     0.19455     -0.042533
C599     C     0.55663     0.30092     0.80545     -0.042533
C600     C     0.44337     0.69908     0.19455     -0.042533
C601     C     0.55663     0.69908     0.69455     -0.042533
C602     C     0.44337     0.30092     0.30545     -0.042533
C603     C     0.44337     0.30092     0.69455     -0.042533
C604     C     0.55663     0.69908     0.30545     -0.042533
C605     C     0.94337     0.19908     0.30545     -0.042533
C606     C     0.05663     0.80092     0.69455     -0.042533
C607     C     0.05663     0.80092     0.30545     -0.042533
C608     C     0.94337     0.19908     0.69455     -0.042533
C609     C     0.05593     0.19990     0.23289     -0.108227
C610     C     0.94407     0.80010     0.76711     -0.108227
C611     C     0.94407     0.80010     0.23289     -0.108227
C612     C     0.05593     0.19990     0.76711     -0.108227
C613     C     0.44407     0.69990     0.76711     -0.108227
C614     C     0.55593     0.30010     0.23289     -0.108227
C615     C     0.55593     0.30010     0.76711     -0.108227
C616     C     0.44407     0.69990     0.23289     -0.108227
C617     C     0.55593     0.69990     0.73289     -0.108227
C618     C     0.44407     0.30010     0.26711     -0.108227
C619     C     0.44407     0.30010     0.73289     -0.108227
C620     C     0.55593     0.69990     0.26711     -0.108227
C621     C     0.94407     0.19990     0.26711     -0.108227
C622     C     0.05593     0.80010     0.73289     -0.108227
C623     C     0.05593     0.80010     0.26711     -0.108227
C624     C     0.94407     0.19990     0.73289     -0.108227
C625     C     0.03735     0.20746     0.25018     -0.118562
C626     C     0.96265     0.79254     0.74982     -0.118562
C627     C     0.96265     0.79254     0.25018     -0.118562
C628     C     0.03735     0.20746     0.74982     -0.118562
C629     C     0.46265     0.70746     0.74982     -0.118562
C630     C     0.53735     0.29254     0.25018     -0.118562
C631     C     0.53735     0.29254     0.74982     -0.118562
C632     C     0.46265     0.70746     0.25018     -0.118562
C633     C     0.53735     0.70746     0.75018     -0.118562
C634     C     0.46265     0.29254     0.24982     -0.118562
C635     C     0.46265     0.29254     0.75018     -0.118562
C636     C     0.53735     0.70746     0.24982     -0.118562
C637     C     0.96265     0.20746     0.24982     -0.118562
C638     C     0.03735     0.79254     0.75018     -0.118562
C639     C     0.03735     0.79254     0.24982     -0.118562
C640     C     0.96265     0.20746     0.75018     -0.118562
C641     C     0.07760     0.19177     0.17601     -0.069269
C642     C     0.92240     0.80823     0.82399     -0.069269
C643     C     0.92240     0.80823     0.17601     -0.069269
C644     C     0.07760     0.19177     0.82399     -0.069269
C645     C     0.42240     0.69177     0.82399     -0.069269
C646     C     0.57760     0.30823     0.17601     -0.069269
C647     C     0.57760     0.30823     0.82399     -0.069269
C648     C     0.42240     0.69177     0.17601     -0.069269
C649     C     0.57760     0.69177     0.67601     -0.069269
C650     C     0.42240     0.30823     0.32399     -0.069269
C651     C     0.42240     0.30823     0.67601     -0.069269
C652     C     0.57760     0.69177     0.32399     -0.069269
C653     C     0.92240     0.19177     0.32399     -0.069269
C654     C     0.07760     0.80823     0.67601     -0.069269
C655     C     0.07760     0.80823     0.32399     -0.069269
C656     C     0.92240     0.19177     0.67601     -0.069269
C657     C     0.00668     0.51353     0.19370     -0.119621
C658     C     0.99332     0.48647     0.80630     -0.119621
C659     C     0.99332     0.48647     0.19370     -0.119621
C660     C     0.00668     0.51353     0.80630     -0.119621
C661     C     0.49332     0.01353     0.80630     -0.119621
C662     C     0.50668     0.98647     0.19370     -0.119621
C663     C     0.50668     0.98647     0.80630     -0.119621
C664     C     0.49332     0.01353     0.19370     -0.119621
C665     C     0.50668     0.01353     0.69370     -0.119621
C666     C     0.49332     0.98647     0.30630     -0.119621
C667     C     0.49332     0.98647     0.69370     -0.119621
C668     C     0.50668     0.01353     0.30630     -0.119621
C669     C     0.99332     0.51353     0.30630     -0.119621
C670     C     0.00668     0.48647     0.69370     -0.119621
C671     C     0.00668     0.48647     0.30630     -0.119621
C672     C     0.99332     0.51353     0.69370     -0.119621
C673     C     0.02099     0.52218     0.17393     -0.116101
C674     C     0.97901     0.47782     0.82607     -0.116101
C675     C     0.97901     0.47782     0.17393     -0.116101
C676     C     0.02099     0.52218     0.82607     -0.116101
C677     C     0.47901     0.02218     0.82607     -0.116101
C678     C     0.52099     0.97782     0.17393     -0.116101
C679     C     0.52099     0.97782     0.82607     -0.116101
C680     C     0.47901     0.02218     0.17393     -0.116101
C681     C     0.52099     0.02218     0.67393     -0.116101
C682     C     0.47901     0.97782     0.32607     -0.116101
C683     C     0.47901     0.97782     0.67393     -0.116101
C684     C     0.52099     0.02218     0.32607     -0.116101
C685     C     0.97901     0.52218     0.32607     -0.116101
C686     C     0.02099     0.47782     0.67393     -0.116101
C687     C     0.02099     0.47782     0.32607     -0.116101
C688     C     0.97901     0.52218     0.67393     -0.116101
C689     C     0.05600     0.52217     0.22022     -0.107578
C690     C     0.94400     0.47783     0.77978     -0.107578
C691     C     0.94400     0.47783     0.22022     -0.107578
C692     C     0.05600     0.52217     0.77978     -0.107578
C693     C     0.44400     0.02217     0.77978     -0.107578
C694     C     0.55600     0.97783     0.22022     -0.107578
C695     C     0.55600     0.97783     0.77978     -0.107578
C696     C     0.44400     0.02217     0.22022     -0.107578
C697     C     0.55600     0.02217     0.72022     -0.107578
C698     C     0.44400     0.97783     0.27978     -0.107578
C699     C     0.44400     0.97783     0.72022     -0.107578
C700     C     0.55600     0.02217     0.27978     -0.107578
C701     C     0.94400     0.52217     0.27978     -0.107578
C702     C     0.05600     0.47783     0.72022     -0.107578
C703     C     0.05600     0.47783     0.27978     -0.107578
C704     C     0.94400     0.52217     0.72022     -0.107578
C705     C     0.04170     0.51351     0.24003     -0.118079
C706     C     0.95830     0.48649     0.75997     -0.118079
C707     C     0.95830     0.48649     0.24003     -0.118079
C708     C     0.04170     0.51351     0.75997     -0.118079
C709     C     0.45830     0.01351     0.75997     -0.118079
C710     C     0.54170     0.98649     0.24003     -0.118079
C711     C     0.54170     0.98649     0.75997     -0.118079
C712     C     0.45830     0.01351     0.24003     -0.118079
C713     C     0.54170     0.01351     0.74003     -0.118079
C714     C     0.45830     0.98649     0.25997     -0.118079
C715     C     0.45830     0.98649     0.74003     -0.118079
C716     C     0.54170     0.01351     0.25997     -0.118079
C717     C     0.95830     0.51351     0.25997     -0.118079
C718     C     0.04170     0.48649     0.74003     -0.118079
C719     C     0.04170     0.48649     0.25997     -0.118079
C720     C     0.95830     0.51351     0.74003     -0.118079
C721     C     0.08856     0.53525     0.15989     0.105481
C722     C     0.91144     0.46475     0.84011     0.105481
C723     C     0.91144     0.46475     0.15989     0.105481
C724     C     0.08856     0.53525     0.84011     0.105481
C725     C     0.41144     0.03525     0.84011     0.105481
C726     C     0.58856     0.96475     0.15989     0.105481
C727     C     0.58856     0.96475     0.84011     0.105481
C728     C     0.41144     0.03525     0.15989     0.105481
C729     C     0.58856     0.03525     0.65989     0.105481
C730     C     0.41144     0.96475     0.34011     0.105481
C731     C     0.41144     0.96475     0.65989     0.105481
C732     C     0.58856     0.03525     0.34011     0.105481
C733     C     0.91144     0.53525     0.34011     0.105481
C734     C     0.08856     0.46475     0.65989     0.105481
C735     C     0.08856     0.46475     0.34011     0.105481
C736     C     0.91144     0.53525     0.65989     0.105481
C737     C     0.10197     0.54434     0.14061     -0.130647
C738     C     0.89803     0.45566     0.85939     -0.130647
C739     C     0.89803     0.45566     0.14061     -0.130647
C740     C     0.10197     0.54434     0.85939     -0.130647
C741     C     0.39803     0.04434     0.85939     -0.130647
C742     C     0.60197     0.95566     0.14061     -0.130647
C743     C     0.60197     0.95566     0.85939     -0.130647
C744     C     0.39803     0.04434     0.14061     -0.130647
C745     C     0.60197     0.04434     0.64061     -0.130647
C746     C     0.39803     0.95566     0.35939     -0.130647
C747     C     0.39803     0.95566     0.64061     -0.130647
C748     C     0.60197     0.04434     0.35939     -0.130647
C749     C     0.89803     0.54434     0.35939     -0.130647
C750     C     0.10197     0.45566     0.64061     -0.130647
C751     C     0.10197     0.45566     0.35939     -0.130647
C752     C     0.89803     0.54434     0.64061     -0.130647
C753     C     0.08784     0.55438     0.12773     0.025612
C754     C     0.91216     0.44562     0.87227     0.025612
C755     C     0.91216     0.44562     0.12773     0.025612
C756     C     0.08784     0.55438     0.87227     0.025612
C757     C     0.41216     0.05438     0.87227     0.025612
C758     C     0.58784     0.94562     0.12773     0.025612
C759     C     0.58784     0.94562     0.87227     0.025612
C760     C     0.41216     0.05438     0.12773     0.025612
C761     C     0.58784     0.05438     0.62773     0.025612
C762     C     0.41216     0.94562     0.37227     0.025612
C763     C     0.41216     0.94562     0.62773     0.025612
C764     C     0.58784     0.05438     0.37227     0.025612
C765     C     0.91216     0.55438     0.37227     0.025612
C766     C     0.08784     0.44562     0.62773     0.025612
C767     C     0.08784     0.44562     0.37227     0.025612
C768     C     0.91216     0.55438     0.62773     0.025612
C769     C     0.05969     0.55509     0.13367     -0.172277
C770     C     0.94031     0.44491     0.86633     -0.172277
C771     C     0.94031     0.44491     0.13367     -0.172277
C772     C     0.05969     0.55509     0.86633     -0.172277
C773     C     0.44031     0.05509     0.86633     -0.172277
C774     C     0.55969     0.94491     0.13367     -0.172277
C775     C     0.55969     0.94491     0.86633     -0.172277
C776     C     0.44031     0.05509     0.13367     -0.172277
C777     C     0.55969     0.05509     0.63367     -0.172277
C778     C     0.44031     0.94491     0.36633     -0.172277
C779     C     0.44031     0.94491     0.63367     -0.172277
C780     C     0.55969     0.05509     0.36633     -0.172277
C781     C     0.94031     0.55509     0.36633     -0.172277
C782     C     0.05969     0.44491     0.63367     -0.172277
C783     C     0.05969     0.44491     0.36633     -0.172277
C784     C     0.94031     0.55509     0.63367     -0.172277
C785     C     0.04626     0.54603     0.15289     -0.09185
C786     C     0.95374     0.45397     0.84711     -0.09185
C787     C     0.95374     0.45397     0.15289     -0.09185
C788     C     0.04626     0.54603     0.84711     -0.09185
C789     C     0.45374     0.04603     0.84711     -0.09185
C790     C     0.54626     0.95397     0.15289     -0.09185
C791     C     0.54626     0.95397     0.84711     -0.09185
C792     C     0.45374     0.04603     0.15289     -0.09185
C793     C     0.54626     0.04603     0.65289     -0.09185
C794     C     0.45374     0.95397     0.34711     -0.09185
C795     C     0.45374     0.95397     0.65289     -0.09185
C796     C     0.54626     0.04603     0.34711     -0.09185
C797     C     0.95374     0.54603     0.34711     -0.09185
C798     C     0.04626     0.45397     0.65289     -0.09185
C799     C     0.04626     0.45397     0.34711     -0.09185
C800     C     0.95374     0.54603     0.65289     -0.09185
C801     C     0.84680     0.30417     0.07765     0.116308
C802     C     0.15320     0.69583     0.92235     0.116308
C803     C     0.15320     0.69583     0.07765     0.116308
C804     C     0.84680     0.30417     0.92235     0.116308
C805     C     0.65320     0.80417     0.92235     0.116308
C806     C     0.34680     0.19583     0.07765     0.116308
C807     C     0.34680     0.19583     0.92235     0.116308
C808     C     0.65320     0.80417     0.07765     0.116308
C809     C     0.34680     0.80417     0.57765     0.116308
C810     C     0.65320     0.19583     0.42235     0.116308
C811     C     0.65320     0.19583     0.57765     0.116308
C812     C     0.34680     0.80417     0.42235     0.116308
C813     C     0.15320     0.30417     0.42235     0.116308
C814     C     0.84680     0.69583     0.57765     0.116308
C815     C     0.84680     0.69583     0.42235     0.116308
C816     C     0.15320     0.30417     0.57765     0.116308
C817     C     0.83707     0.31394     0.05751     -0.162207
C818     C     0.16293     0.68606     0.94249     -0.162207
C819     C     0.16293     0.68606     0.05751     -0.162207
C820     C     0.83707     0.31394     0.94249     -0.162207
C821     C     0.66293     0.81394     0.94249     -0.162207
C822     C     0.33707     0.18606     0.05751     -0.162207
C823     C     0.33707     0.18606     0.94249     -0.162207
C824     C     0.66293     0.81394     0.05751     -0.162207
C825     C     0.33707     0.81394     0.55751     -0.162207
C826     C     0.66293     0.18606     0.44249     -0.162207
C827     C     0.66293     0.18606     0.55751     -0.162207
C828     C     0.33707     0.81394     0.44249     -0.162207
C829     C     0.16293     0.31394     0.44249     -0.162207
C830     C     0.83707     0.68606     0.55751     -0.162207
C831     C     0.83707     0.68606     0.44249     -0.162207
C832     C     0.16293     0.31394     0.55751     -0.162207
C833     C     0.88309     0.32013     0.04450     -0.14053
C834     C     0.11691     0.67987     0.95550     -0.14053
C835     C     0.11691     0.67987     0.04450     -0.14053
C836     C     0.88309     0.32013     0.95550     -0.14053
C837     C     0.61691     0.82013     0.95550     -0.14053
C838     C     0.38309     0.17987     0.04450     -0.14053
C839     C     0.38309     0.17987     0.95550     -0.14053
C840     C     0.61691     0.82013     0.04450     -0.14053
C841     C     0.38309     0.82013     0.54450     -0.14053
C842     C     0.61691     0.17987     0.45550     -0.14053
C843     C     0.61691     0.17987     0.54450     -0.14053
C844     C     0.38309     0.82013     0.45550     -0.14053
C845     C     0.11691     0.32013     0.45550     -0.14053
C846     C     0.88309     0.67987     0.54450     -0.14053
C847     C     0.88309     0.67987     0.45550     -0.14053
C848     C     0.11691     0.32013     0.54450     -0.14053
C849     C     0.89290     0.31027     0.06407     -0.056311
C850     C     0.10710     0.68973     0.93593     -0.056311
C851     C     0.10710     0.68973     0.06407     -0.056311
C852     C     0.89290     0.31027     0.93593     -0.056311
C853     C     0.60710     0.81027     0.93593     -0.056311
C854     C     0.39290     0.18973     0.06407     -0.056311
C855     C     0.39290     0.18973     0.93593     -0.056311
C856     C     0.60710     0.81027     0.06407     -0.056311
C857     C     0.39290     0.81027     0.56407     -0.056311
C858     C     0.60710     0.18973     0.43593     -0.056311
C859     C     0.60710     0.18973     0.56407     -0.056311
C860     C     0.39290     0.81027     0.43593     -0.056311
C861     C     0.10710     0.31027     0.43593     -0.056311
C862     C     0.89290     0.68973     0.56407     -0.056311
C863     C     0.89290     0.68973     0.43593     -0.056311
C864     C     0.10710     0.31027     0.56407     -0.056311
C865     C     0.00034     0.23964     0.20069     -0.118849
C866     C     0.99966     0.76036     0.79931     -0.118849
C867     C     0.99966     0.76036     0.20069     -0.118849
C868     C     0.00034     0.23964     0.79931     -0.118849
C869     C     0.49966     0.73964     0.79931     -0.118849
C870     C     0.50034     0.26036     0.20069     -0.118849
C871     C     0.50034     0.26036     0.79931     -0.118849
C872     C     0.49966     0.73964     0.20069     -0.118849
C873     C     0.50034     0.73964     0.70069     -0.118849
C874     C     0.49966     0.26036     0.29931     -0.118849
C875     C     0.49966     0.26036     0.70069     -0.118849
C876     C     0.50034     0.73964     0.29931     -0.118849
C877     C     0.99966     0.23964     0.29931     -0.118849
C878     C     0.00034     0.76036     0.70069     -0.118849
C879     C     0.00034     0.76036     0.29931     -0.118849
C880     C     0.99966     0.23964     0.70069     -0.118849
C881     C     0.98793     0.24844     0.17919     -0.108608
C882     C     0.01207     0.75156     0.82081     -0.108608
C883     C     0.01207     0.75156     0.17919     -0.108608
C884     C     0.98793     0.24844     0.82081     -0.108608
C885     C     0.51207     0.74844     0.82081     -0.108608
C886     C     0.48793     0.25156     0.17919     -0.108608
C887     C     0.48793     0.25156     0.82081     -0.108608
C888     C     0.51207     0.74844     0.17919     -0.108608
C889     C     0.48793     0.74844     0.67919     -0.108608
C890     C     0.51207     0.25156     0.32081     -0.108608
C891     C     0.51207     0.25156     0.67919     -0.108608
C892     C     0.48793     0.74844     0.32081     -0.108608
C893     C     0.01207     0.24844     0.32081     -0.108608
C894     C     0.98793     0.75156     0.67919     -0.108608
C895     C     0.98793     0.75156     0.32081     -0.108608
C896     C     0.01207     0.24844     0.67919     -0.108608
C897     C     0.94426     0.24253     0.20293     -0.11756
C898     C     0.05574     0.75747     0.79707     -0.11756
C899     C     0.05574     0.75747     0.20293     -0.11756
C900     C     0.94426     0.24253     0.79707     -0.11756
C901     C     0.55574     0.74253     0.79707     -0.11756
C902     C     0.44426     0.25747     0.20293     -0.11756
C903     C     0.44426     0.25747     0.79707     -0.11756
C904     C     0.55574     0.74253     0.20293     -0.11756
C905     C     0.44426     0.74253     0.70293     -0.11756
C906     C     0.55574     0.25747     0.29707     -0.11756
C907     C     0.55574     0.25747     0.70293     -0.11756
C908     C     0.44426     0.74253     0.29707     -0.11756
C909     C     0.05574     0.24253     0.29707     -0.11756
C910     C     0.94426     0.75747     0.70293     -0.11756
C911     C     0.94426     0.75747     0.29707     -0.11756
C912     C     0.05574     0.24253     0.70293     -0.11756
C913     C     0.95666     0.23386     0.22488     -0.121074
C914     C     0.04334     0.76614     0.77512     -0.121074
C915     C     0.04334     0.76614     0.22488     -0.121074
C916     C     0.95666     0.23386     0.77512     -0.121074
C917     C     0.54334     0.73386     0.77512     -0.121074
C918     C     0.45666     0.26614     0.22488     -0.121074
C919     C     0.45666     0.26614     0.77512     -0.121074
C920     C     0.54334     0.73386     0.22488     -0.121074
C921     C     0.45666     0.73386     0.72488     -0.121074
C922     C     0.54334     0.26614     0.27512     -0.121074
C923     C     0.54334     0.26614     0.72488     -0.121074
C924     C     0.45666     0.73386     0.27512     -0.121074
C925     C     0.04334     0.23386     0.27512     -0.121074
C926     C     0.95666     0.76614     0.72488     -0.121074
C927     C     0.95666     0.76614     0.27512     -0.121074
C928     C     0.04334     0.23386     0.72488     -0.121074
C929     C     0.92602     0.26666     0.17468     -0.088477
C930     C     0.07398     0.73334     0.82532     -0.088477
C931     C     0.07398     0.73334     0.17468     -0.088477
C932     C     0.92602     0.26666     0.82532     -0.088477
C933     C     0.57398     0.76666     0.82532     -0.088477
C934     C     0.42602     0.23334     0.17468     -0.088477
C935     C     0.42602     0.23334     0.82532     -0.088477
C936     C     0.57398     0.76666     0.17468     -0.088477
C937     C     0.42602     0.76666     0.67468     -0.088477
C938     C     0.57398     0.23334     0.32532     -0.088477
C939     C     0.57398     0.23334     0.67468     -0.088477
C940     C     0.42602     0.76666     0.32532     -0.088477
C941     C     0.07398     0.26666     0.32532     -0.088477
C942     C     0.92602     0.73334     0.67468     -0.088477
C943     C     0.92602     0.73334     0.32532     -0.088477
C944     C     0.07398     0.26666     0.67468     -0.088477
C945     C     0.91358     0.27592     0.15515     -0.171817
C946     C     0.08642     0.72408     0.84485     -0.171817
C947     C     0.08642     0.72408     0.15515     -0.171817
C948     C     0.91358     0.27592     0.84485     -0.171817
C949     C     0.58642     0.77592     0.84485     -0.171817
C950     C     0.41358     0.22408     0.15515     -0.171817
C951     C     0.41358     0.22408     0.84485     -0.171817
C952     C     0.58642     0.77592     0.15515     -0.171817
C953     C     0.41358     0.77592     0.65515     -0.171817
C954     C     0.58642     0.22408     0.34485     -0.171817
C955     C     0.58642     0.22408     0.65515     -0.171817
C956     C     0.41358     0.77592     0.34485     -0.171817
C957     C     0.08642     0.27592     0.34485     -0.171817
C958     C     0.91358     0.72408     0.65515     -0.171817
C959     C     0.91358     0.72408     0.34485     -0.171817
C960     C     0.08642     0.27592     0.65515     -0.171817
C961     C     0.94214     0.27164     0.10286     -0.140611
C962     C     0.05786     0.72836     0.89714     -0.140611
C963     C     0.05786     0.72836     0.10286     -0.140611
C964     C     0.94214     0.27164     0.89714     -0.140611
C965     C     0.55786     0.77164     0.89714     -0.140611
C966     C     0.44214     0.22836     0.10286     -0.140611
C967     C     0.44214     0.22836     0.89714     -0.140611
C968     C     0.55786     0.77164     0.10286     -0.140611
C969     C     0.44214     0.77164     0.60286     -0.140611
C970     C     0.55786     0.22836     0.39714     -0.140611
C971     C     0.55786     0.22836     0.60286     -0.140611
C972     C     0.44214     0.77164     0.39714     -0.140611
C973     C     0.05786     0.27164     0.39714     -0.140611
C974     C     0.94214     0.72836     0.60286     -0.140611
C975     C     0.94214     0.72836     0.39714     -0.140611
C976     C     0.05786     0.27164     0.60286     -0.140611
C977     C     0.95439     0.26223     0.12213     0.107092
C978     C     0.04561     0.73777     0.87787     0.107092
C979     C     0.04561     0.73777     0.12213     0.107092
C980     C     0.95439     0.26223     0.87787     0.107092
C981     C     0.54561     0.76223     0.87787     0.107092
C982     C     0.45439     0.23777     0.12213     0.107092
C983     C     0.45439     0.23777     0.87787     0.107092
C984     C     0.54561     0.76223     0.12213     0.107092
C985     C     0.45439     0.76223     0.62213     0.107092
C986     C     0.54561     0.23777     0.37787     0.107092
C987     C     0.54561     0.23777     0.62213     0.107092
C988     C     0.45439     0.76223     0.37787     0.107092
C989     C     0.04561     0.26223     0.37787     0.107092
C990     C     0.95439     0.73777     0.62213     0.107092
C991     C     0.95439     0.73777     0.37787     0.107092
C992     C     0.04561     0.26223     0.62213     0.107092
C993     C     0.42967     0.68361     0.14834     -0.087175
C994     C     0.57033     0.31639     0.85166     -0.087175
C995     C     0.57033     0.31639     0.14834     -0.087175
C996     C     0.42967     0.68361     0.85166     -0.087175
C997     C     0.07033     0.18361     0.85166     -0.087175
C998     C     0.92967     0.81639     0.14834     -0.087175
C999     C     0.92967     0.81639     0.85166     -0.087175
C1000     C     0.07033     0.18361     0.14834     -0.087175
C1001     C     0.92967     0.18361     0.64834     -0.087175
C1002     C     0.07033     0.81639     0.35166     -0.087175
C1003     C     0.07033     0.81639     0.64834     -0.087175
C1004     C     0.92967     0.18361     0.35166     -0.087175
C1005     C     0.57033     0.68361     0.35166     -0.087175
C1006     C     0.42967     0.31639     0.64834     -0.087175
C1007     C     0.42967     0.31639     0.35166     -0.087175
C1008     C     0.57033     0.68361     0.64834     -0.087175
C1009     C     0.40979     0.67706     0.12971     -0.168972
C1010     C     0.59021     0.32294     0.87029     -0.168972
C1011     C     0.59021     0.32294     0.12971     -0.168972
C1012     C     0.40979     0.67706     0.87029     -0.168972
C1013     C     0.09021     0.17706     0.87029     -0.168972
C1014     C     0.90979     0.82294     0.12971     -0.168972
C1015     C     0.90979     0.82294     0.87029     -0.168972
C1016     C     0.09021     0.17706     0.12971     -0.168972
C1017     C     0.90979     0.17706     0.62971     -0.168972
C1018     C     0.09021     0.82294     0.37029     -0.168972
C1019     C     0.09021     0.82294     0.62971     -0.168972
C1020     C     0.90979     0.17706     0.37029     -0.168972
C1021     C     0.59021     0.67706     0.37029     -0.168972
C1022     C     0.40979     0.32294     0.62971     -0.168972
C1023     C     0.40979     0.32294     0.37029     -0.168972
C1024     C     0.59021     0.67706     0.62971     -0.168972
C1025     C     0.38223     0.67863     0.13842     0.028441
C1026     C     0.61777     0.32137     0.86158     0.028441
C1027     C     0.61777     0.32137     0.13842     0.028441
C1028     C     0.38223     0.67863     0.86158     0.028441
C1029     C     0.11777     0.17863     0.86158     0.028441
C1030     C     0.88223     0.82137     0.13842     0.028441
C1031     C     0.88223     0.82137     0.86158     0.028441
C1032     C     0.11777     0.17863     0.13842     0.028441
C1033     C     0.88223     0.17863     0.63842     0.028441
C1034     C     0.11777     0.82137     0.36158     0.028441
C1035     C     0.11777     0.82137     0.63842     0.028441
C1036     C     0.88223     0.17863     0.36158     0.028441
C1037     C     0.61777     0.67863     0.36158     0.028441
C1038     C     0.38223     0.32137     0.63842     0.028441
C1039     C     0.38223     0.32137     0.36158     0.028441
C1040     C     0.61777     0.67863     0.63842     0.028441
C1041     C     0.37503     0.68681     0.16583     -0.139052
C1042     C     0.62497     0.31319     0.83417     -0.139052
C1043     C     0.62497     0.31319     0.16583     -0.139052
C1044     C     0.37503     0.68681     0.83417     -0.139052
C1045     C     0.12497     0.18681     0.83417     -0.139052
C1046     C     0.87503     0.81319     0.16583     -0.139052
C1047     C     0.87503     0.81319     0.83417     -0.139052
C1048     C     0.12497     0.18681     0.16583     -0.139052
C1049     C     0.87503     0.18681     0.66583     -0.139052
C1050     C     0.12497     0.81319     0.33417     -0.139052
C1051     C     0.12497     0.81319     0.66583     -0.139052
C1052     C     0.87503     0.18681     0.33417     -0.139052
C1053     C     0.62497     0.68681     0.33417     -0.139052
C1054     C     0.37503     0.31319     0.66583     -0.139052
C1055     C     0.37503     0.31319     0.33417     -0.139052
C1056     C     0.62497     0.68681     0.66583     -0.139052
C1057     C     0.39484     0.69329     0.18472     0.105336
C1058     C     0.60516     0.30671     0.81528     0.105336
C1059     C     0.60516     0.30671     0.18472     0.105336
C1060     C     0.39484     0.69329     0.81528     0.105336
C1061     C     0.10516     0.19329     0.81528     0.105336
C1062     C     0.89484     0.80671     0.18472     0.105336
C1063     C     0.89484     0.80671     0.81528     0.105336
C1064     C     0.10516     0.19329     0.18472     0.105336
C1065     C     0.89484     0.19329     0.68472     0.105336
C1066     C     0.10516     0.80671     0.31528     0.105336
C1067     C     0.10516     0.80671     0.68472     0.105336
C1068     C     0.89484     0.19329     0.31528     0.105336
C1069     C     0.60516     0.69329     0.31528     0.105336
C1070     C     0.39484     0.30671     0.68472     0.105336
C1071     C     0.39484     0.30671     0.31528     0.105336
C1072     C     0.60516     0.69329     0.68472     0.105336
C1073     C     0.50000     0.72334     0.25000     0.124341
C1074     C     0.50000     0.27666     0.75000     0.124341
C1075     C     0.50000     0.27666     0.25000     0.124341
C1076     C     0.50000     0.72334     0.75000     0.124341
C1077     C     0.00000     0.22334     0.75000     0.124341
C1078     C     0.00000     0.77666     0.25000     0.124341
C1079     C     0.00000     0.77666     0.75000     0.124341
C1080     C     0.00000     0.22334     0.25000     0.124341
C1081     C     0.00000     0.50000     0.25000     0.121557
C1082     C     0.00000     0.50000     0.75000     0.121557
C1083     C     0.50000     0.00000     0.75000     0.121557
C1084     C     0.50000     0.00000     0.25000     0.121557
N1     N     0.36090     0.67271     0.11866     -0.184653
N2     N     0.63910     0.32729     0.88134     -0.184653
N3     N     0.63910     0.32729     0.11866     -0.184653
N4     N     0.36090     0.67271     0.88134     -0.184653
N5     N     0.13910     0.17271     0.88134     -0.184653
N6     N     0.86090     0.82729     0.11866     -0.184653
N7     N     0.86090     0.82729     0.88134     -0.184653
N8     N     0.13910     0.17271     0.11866     -0.184653
N9     N     0.86090     0.17271     0.61866     -0.184653
N10     N     0.13910     0.82729     0.38134     -0.184653
N11     N     0.13910     0.82729     0.61866     -0.184653
N12     N     0.86090     0.17271     0.38134     -0.184653
N13     N     0.63910     0.67271     0.38134     -0.184653
N14     N     0.36090     0.32729     0.61866     -0.184653
N15     N     0.36090     0.32729     0.38134     -0.184653
N16     N     0.63910     0.67271     0.61866     -0.184653
N17     N     0.10265     0.56343     0.10797     -0.160052
N18     N     0.89735     0.43657     0.89203     -0.160052
N19     N     0.89735     0.43657     0.10797     -0.160052
N20     N     0.10265     0.56343     0.89203     -0.160052
N21     N     0.39735     0.06343     0.89203     -0.160052
N22     N     0.60265     0.93657     0.10797     -0.160052
N23     N     0.60265     0.93657     0.89203     -0.160052
N24     N     0.39735     0.06343     0.10797     -0.160052
N25     N     0.60265     0.06343     0.60797     -0.160052
N26     N     0.39735     0.93657     0.39203     -0.160052
N27     N     0.39735     0.93657     0.60797     -0.160052
N28     N     0.60265     0.06343     0.39203     -0.160052
N29     N     0.89735     0.56343     0.39203     -0.160052
N30     N     0.10265     0.43657     0.60797     -0.160052
N31     N     0.10265     0.43657     0.39203     -0.160052
N32     N     0.89735     0.56343     0.60797     -0.160052
N33     N     0.09027     0.71187     0.09847     -0.171282
N34     N     0.90973     0.28813     0.90153     -0.171282
N35     N     0.90973     0.28813     0.09847     -0.171282
N36     N     0.09027     0.71187     0.90153     -0.171282
N37     N     0.40973     0.21187     0.90153     -0.171282
N38     N     0.59027     0.78813     0.09847     -0.171282
N39     N     0.59027     0.78813     0.90153     -0.171282
N40     N     0.40973     0.21187     0.09847     -0.171282
N41     N     0.59027     0.21187     0.59847     -0.171282
N42     N     0.40973     0.78813     0.40153     -0.171282
N43     N     0.40973     0.78813     0.59847     -0.171282
N44     N     0.59027     0.21187     0.40153     -0.171282
N45     N     0.90973     0.71187     0.40153     -0.171282
N46     N     0.09027     0.28813     0.59847     -0.171282
N47     N     0.09027     0.28813     0.40153     -0.171282
N48     N     0.90973     0.71187     0.59847     -0.171282
F1     F     0.61302     0.29862     0.21042     -0.099425
F2     F     0.38698     0.70138     0.78958     -0.099425
F3     F     0.38698     0.70138     0.21042     -0.099425
F4     F     0.61302     0.29862     0.78958     -0.099425
F5     F     0.88698     0.79862     0.78958     -0.099425
F6     F     0.11302     0.20138     0.21042     -0.099425
F7     F     0.11302     0.20138     0.78958     -0.099425
F8     F     0.88698     0.79862     0.21042     -0.099425
F9     F     0.11302     0.79862     0.71042     -0.099425
F10     F     0.88698     0.20138     0.28958     -0.099425
F11     F     0.88698     0.20138     0.71042     -0.099425
F12     F     0.11302     0.79862     0.28958     -0.099425
F13     F     0.38698     0.29862     0.28958     -0.099425
F14     F     0.61302     0.70138     0.71042     -0.099425
F15     F     0.61302     0.70138     0.28958     -0.099425
F16     F     0.38698     0.29862     0.71042     -0.099425
F17     F     0.47339     0.24452     0.89513     -0.097633
F18     F     0.52661     0.75548     0.10487     -0.097633
F19     F     0.52661     0.75548     0.89513     -0.097633
F20     F     0.47339     0.24452     0.10487     -0.097633
F21     F     0.02661     0.74452     0.10487     -0.097633
F22     F     0.97339     0.25548     0.89513     -0.097633
F23     F     0.97339     0.25548     0.10487     -0.097633
F24     F     0.02661     0.74452     0.89513     -0.097633
F25     F     0.97339     0.74452     0.39513     -0.097633
F26     F     0.02661     0.25548     0.60487     -0.097633
F27     F     0.02661     0.25548     0.39513     -0.097633
F28     F     0.97339     0.74452     0.60487     -0.097633
F29     F     0.52661     0.24452     0.60487     -0.097633
F30     F     0.47339     0.75548     0.39513     -0.097633
F31     F     0.47339     0.75548     0.60487     -0.097633
F32     F     0.52661     0.24452     0.39513     -0.097633
F33     F     0.10289     0.47445     0.32869     -0.097055
F34     F     0.89711     0.52555     0.67131     -0.097055
F35     F     0.89711     0.52555     0.32869     -0.097055
F36     F     0.10289     0.47445     0.67131     -0.097055
F37     F     0.39711     0.97445     0.67131     -0.097055
F38     F     0.60289     0.02555     0.32869     -0.097055
F39     F     0.60289     0.02555     0.67131     -0.097055
F40     F     0.39711     0.97445     0.32869     -0.097055
F41     F     0.60289     0.97445     0.82869     -0.097055
F42     F     0.39711     0.02555     0.17131     -0.097055
F43     F     0.39711     0.02555     0.82869     -0.097055
F44     F     0.60289     0.97445     0.17131     -0.097055
F45     F     0.89711     0.47445     0.17131     -0.097055
F46     F     0.10289     0.52555     0.82869     -0.097055
F47     F     0.10289     0.52555     0.17131     -0.097055
F48     F     0.89711     0.47445     0.82869     -0.097055
F49     F     0.14728     0.43136     0.57017     -0.073319
F50     F     0.85272     0.56864     0.42983     -0.073319
F51     F     0.85272     0.56864     0.57017     -0.073319
F52     F     0.14728     0.43136     0.42983     -0.073319
F53     F     0.35272     0.93136     0.42983     -0.073319
F54     F     0.64728     0.06864     0.57017     -0.073319
F55     F     0.64728     0.06864     0.42983     -0.073319
F56     F     0.35272     0.93136     0.57017     -0.073319
F57     F     0.64728     0.93136     0.07017     -0.073319
F58     F     0.35272     0.06864     0.92983     -0.073319
F59     F     0.35272     0.06864     0.07017     -0.073319
F60     F     0.64728     0.93136     0.92983     -0.073319
F61     F     0.85272     0.43136     0.92983     -0.073319
F62     F     0.14728     0.56864     0.07017     -0.073319
F63     F     0.14728     0.56864     0.92983     -0.073319
F64     F     0.85272     0.43136     0.07017     -0.073319
F65     F     0.17119     0.29659     0.59364     -0.100664
F66     F     0.82881     0.70341     0.40636     -0.100664
F67     F     0.82881     0.70341     0.59364     -0.100664
F68     F     0.17119     0.29659     0.40636     -0.100664
F69     F     0.32881     0.79659     0.40636     -0.100664
F70     F     0.67119     0.20341     0.59364     -0.100664
F71     F     0.67119     0.20341     0.40636     -0.100664
F72     F     0.32881     0.79659     0.59364     -0.100664
F73     F     0.67119     0.79659     0.09364     -0.100664
F74     F     0.32881     0.20341     0.90636     -0.100664
F75     F     0.32881     0.20341     0.09364     -0.100664
F76     F     0.67119     0.79659     0.90636     -0.100664
F77     F     0.82881     0.29659     0.90636     -0.100664
F78     F     0.17119     0.70341     0.09364     -0.100664
F79     F     0.17119     0.70341     0.90636     -0.100664
F80     F     0.82881     0.29659     0.09364     -0.100664
F81     F     0.63719     0.63962     0.56733     -0.100806
F82     F     0.36281     0.36038     0.43267     -0.100806
F83     F     0.36281     0.36038     0.56733     -0.100806
F84     F     0.63719     0.63962     0.43267     -0.100806
F85     F     0.86281     0.13962     0.43267     -0.100806
F86     F     0.13719     0.86038     0.56733     -0.100806
F87     F     0.13719     0.86038     0.43267     -0.100806
F88     F     0.86281     0.13962     0.56733     -0.100806
F89     F     0.13719     0.13962     0.06733     -0.100806
F90     F     0.86281     0.86038     0.93267     -0.100806
F91     F     0.86281     0.86038     0.06733     -0.100806
F92     F     0.13719     0.13962     0.93267     -0.100806
F93     F     0.36281     0.63962     0.93267     -0.100806
F94     F     0.63719     0.36038     0.06733     -0.100806
F95     F     0.63719     0.36038     0.93267     -0.100806
F96     F     0.36281     0.63962     0.06733     -0.100806
H1     H     0.24664     0.64241     0.06842     0.145042
H2     H     0.75336     0.35759     0.93158     0.145042
H3     H     0.75336     0.35759     0.06842     0.145042
H4     H     0.24664     0.64241     0.93158     0.145042
H5     H     0.25336     0.14241     0.93158     0.145042
H6     H     0.74664     0.85759     0.06842     0.145042
H7     H     0.74664     0.85759     0.93158     0.145042
H8     H     0.25336     0.14241     0.06842     0.145042
H9     H     0.74664     0.14241     0.56842     0.145042
H10     H     0.25336     0.85759     0.43158     0.145042
H11     H     0.25336     0.85759     0.56842     0.145042
H12     H     0.74664     0.14241     0.43158     0.145042
H13     H     0.75336     0.64241     0.43158     0.145042
H14     H     0.24664     0.35759     0.56842     0.145042
H15     H     0.24664     0.35759     0.43158     0.145042
H16     H     0.75336     0.64241     0.56842     0.145042
H17     H     0.38196     0.65798     0.09898     0.118132
H18     H     0.61804     0.34202     0.90102     0.118132
H19     H     0.61804     0.34202     0.09898     0.118132
H20     H     0.38196     0.65798     0.90102     0.118132
H21     H     0.11804     0.15798     0.90102     0.118132
H22     H     0.88196     0.84202     0.09898     0.118132
H23     H     0.88196     0.84202     0.90102     0.118132
H24     H     0.11804     0.15798     0.09898     0.118132
H25     H     0.88196     0.15798     0.59898     0.118132
H26     H     0.11804     0.84202     0.40102     0.118132
H27     H     0.11804     0.84202     0.59898     0.118132
H28     H     0.88196     0.15798     0.40102     0.118132
H29     H     0.61804     0.65798     0.40102     0.118132
H30     H     0.38196     0.34202     0.59898     0.118132
H31     H     0.38196     0.34202     0.40102     0.118132
H32     H     0.61804     0.65798     0.59898     0.118132
H33     H     0.07517     0.57742     0.11182     0.104431
H34     H     0.92483     0.42258     0.88818     0.104431
H35     H     0.92483     0.42258     0.11182     0.104431
H36     H     0.07517     0.57742     0.88818     0.104431
H37     H     0.42483     0.07742     0.88818     0.104431
H38     H     0.57517     0.92258     0.11182     0.104431
H39     H     0.57517     0.92258     0.88818     0.104431
H40     H     0.42483     0.07742     0.11182     0.104431
H41     H     0.57517     0.07742     0.61182     0.104431
H42     H     0.42483     0.92258     0.38818     0.104431
H43     H     0.42483     0.92258     0.61182     0.104431
H44     H     0.57517     0.07742     0.38818     0.104431
H45     H     0.92483     0.57742     0.38818     0.104431
H46     H     0.07517     0.42258     0.61182     0.104431
H47     H     0.07517     0.42258     0.38818     0.104431
H48     H     0.92483     0.57742     0.61182     0.104431
H49     H     0.16952     0.61837     0.06847     0.144706
H50     H     0.83048     0.38163     0.93153     0.144706
H51     H     0.83048     0.38163     0.06847     0.144706
H52     H     0.16952     0.61837     0.93153     0.144706
H53     H     0.33048     0.11837     0.93153     0.144706
H54     H     0.66952     0.88163     0.06847     0.144706
H55     H     0.66952     0.88163     0.93153     0.144706
H56     H     0.33048     0.11837     0.06847     0.144706
H57     H     0.66952     0.11837     0.56847     0.144706
H58     H     0.33048     0.88163     0.43153     0.144706
H59     H     0.33048     0.88163     0.56847     0.144706
H60     H     0.66952     0.11837     0.43153     0.144706
H61     H     0.83048     0.61837     0.43153     0.144706
H62     H     0.16952     0.38163     0.56847     0.144706
H63     H     0.16952     0.38163     0.43153     0.144706
H64     H     0.83048     0.61837     0.56847     0.144706
H65     H     0.16825     0.65835     0.06848     0.144723
H66     H     0.83175     0.34165     0.93152     0.144723
H67     H     0.83175     0.34165     0.06848     0.144723
H68     H     0.16825     0.65835     0.93152     0.144723
H69     H     0.33175     0.15835     0.93152     0.144723
H70     H     0.66825     0.84165     0.06848     0.144723
H71     H     0.66825     0.84165     0.93152     0.144723
H72     H     0.33175     0.15835     0.06848     0.144723
H73     H     0.66825     0.15835     0.56848     0.144723
H74     H     0.33175     0.84165     0.43152     0.144723
H75     H     0.33175     0.84165     0.56848     0.144723
H76     H     0.66825     0.15835     0.43152     0.144723
H77     H     0.83175     0.65835     0.43152     0.144723
H78     H     0.16825     0.34165     0.56848     0.144723
H79     H     0.16825     0.34165     0.43152     0.144723
H80     H     0.83175     0.65835     0.56848     0.144723
H81     H     0.12887     0.71277     0.12040     0.119252
H82     H     0.87113     0.28723     0.87960     0.119252
H83     H     0.87113     0.28723     0.12040     0.119252
H84     H     0.12887     0.71277     0.87960     0.119252
H85     H     0.37113     0.21277     0.87960     0.119252
H86     H     0.62887     0.78723     0.12040     0.119252
H87     H     0.62887     0.78723     0.87960     0.119252
H88     H     0.37113     0.21277     0.12040     0.119252
H89     H     0.62887     0.21277     0.62040     0.119252
H90     H     0.37113     0.78723     0.37960     0.119252
H91     H     0.37113     0.78723     0.62040     0.119252
H92     H     0.62887     0.21277     0.37960     0.119252
H93     H     0.87113     0.71277     0.37960     0.119252
H94     H     0.12887     0.28723     0.62040     0.119252
H95     H     0.12887     0.28723     0.37960     0.119252
H96     H     0.87113     0.71277     0.62040     0.119252
H97     H     0.19526     0.63854     0.06709     0.12837
H98     H     0.80474     0.36146     0.93291     0.12837
H99     H     0.80474     0.36146     0.06709     0.12837
H100     H     0.19526     0.63854     0.93291     0.12837
H101     H     0.30474     0.13854     0.93291     0.12837
H102     H     0.69526     0.86146     0.06709     0.12837
H103     H     0.69526     0.86146     0.93291     0.12837
H104     H     0.30474     0.13854     0.06709     0.12837
H105     H     0.69526     0.13854     0.56709     0.12837
H106     H     0.30474     0.86146     0.43291     0.12837
H107     H     0.30474     0.86146     0.56709     0.12837
H108     H     0.69526     0.13854     0.43291     0.12837
H109     H     0.80474     0.63854     0.43291     0.12837
H110     H     0.19526     0.36146     0.56709     0.12837
H111     H     0.19526     0.36146     0.43291     0.12837
H112     H     0.80474     0.63854     0.56709     0.12837
H113     H     0.41836     0.09713     0.08561     0.139036
H114     H     0.58164     0.90287     0.91439     0.139036
H115     H     0.58164     0.90287     0.08561     0.139036
H116     H     0.41836     0.09713     0.91439     0.139036
H117     H     0.08164     0.59713     0.91439     0.139036
H118     H     0.91836     0.40287     0.08561     0.139036
H119     H     0.91836     0.40287     0.91439     0.139036
H120     H     0.08164     0.59713     0.08561     0.139036
H121     H     0.91836     0.59713     0.58561     0.139036
H122     H     0.08164     0.40287     0.41439     0.139036
H123     H     0.08164     0.40287     0.58561     0.139036
H124     H     0.91836     0.59713     0.41439     0.139036
H125     H     0.58164     0.09713     0.41439     0.139036
H126     H     0.41836     0.90287     0.58561     0.139036
H127     H     0.41836     0.90287     0.41439     0.139036
H128     H     0.58164     0.09713     0.58561     0.139036
H129     H     0.39188     0.11189     0.05095     0.140768
H130     H     0.60812     0.88811     0.94905     0.140768
H131     H     0.60812     0.88811     0.05095     0.140768
H132     H     0.39188     0.11189     0.94905     0.140768
H133     H     0.10812     0.61189     0.94905     0.140768
H134     H     0.89188     0.38811     0.05095     0.140768
H135     H     0.89188     0.38811     0.94905     0.140768
H136     H     0.10812     0.61189     0.05095     0.140768
H137     H     0.89188     0.61189     0.55095     0.140768
H138     H     0.10812     0.38811     0.44905     0.140768
H139     H     0.10812     0.38811     0.55095     0.140768
H140     H     0.89188     0.61189     0.44905     0.140768
H141     H     0.60812     0.11189     0.44905     0.140768
H142     H     0.39188     0.88811     0.55095     0.140768
H143     H     0.39188     0.88811     0.44905     0.140768
H144     H     0.60812     0.11189     0.55095     0.140768
H145     H     0.32863     0.08582     0.03494     0.155098
H146     H     0.67137     0.91418     0.96506     0.155098
H147     H     0.67137     0.91418     0.03494     0.155098
H148     H     0.32863     0.08582     0.96506     0.155098
H149     H     0.17137     0.58582     0.96506     0.155098
H150     H     0.82863     0.41418     0.03494     0.155098
H151     H     0.82863     0.41418     0.96506     0.155098
H152     H     0.17137     0.58582     0.03494     0.155098
H153     H     0.82863     0.58582     0.53494     0.155098
H154     H     0.17137     0.41418     0.46506     0.155098
H155     H     0.17137     0.41418     0.53494     0.155098
H156     H     0.82863     0.58582     0.46506     0.155098
H157     H     0.67137     0.08582     0.46506     0.155098
H158     H     0.32863     0.91418     0.53494     0.155098
H159     H     0.32863     0.91418     0.46506     0.155098
H160     H     0.67137     0.08582     0.53494     0.155098
H161     H     0.18114     0.13311     0.03324     0.153137
H162     H     0.81886     0.86689     0.96676     0.153137
H163     H     0.81886     0.86689     0.03324     0.153137
H164     H     0.18114     0.13311     0.96676     0.153137
H165     H     0.31886     0.63311     0.96676     0.153137
H166     H     0.68114     0.36689     0.03324     0.153137
H167     H     0.68114     0.36689     0.96676     0.153137
H168     H     0.31886     0.63311     0.03324     0.153137
H169     H     0.68114     0.63311     0.53324     0.153137
H170     H     0.31886     0.36689     0.46676     0.153137
H171     H     0.31886     0.36689     0.53324     0.153137
H172     H     0.68114     0.63311     0.46676     0.153137
H173     H     0.81886     0.13311     0.46676     0.153137
H174     H     0.18114     0.86689     0.53324     0.153137
H175     H     0.18114     0.86689     0.46676     0.153137
H176     H     0.81886     0.13311     0.53324     0.153137
H177     H     0.22448     0.16598     0.05338     0.143386
H178     H     0.77552     0.83402     0.94662     0.143386
H179     H     0.77552     0.83402     0.05338     0.143386
H180     H     0.22448     0.16598     0.94662     0.143386
H181     H     0.27552     0.66598     0.94662     0.143386
H182     H     0.72448     0.33402     0.05338     0.143386
H183     H     0.72448     0.33402     0.94662     0.143386
H184     H     0.27552     0.66598     0.05338     0.143386
H185     H     0.72448     0.66598     0.55338     0.143386
H186     H     0.27552     0.33402     0.44662     0.143386
H187     H     0.27552     0.33402     0.55338     0.143386
H188     H     0.72448     0.66598     0.44662     0.143386
H189     H     0.77552     0.16598     0.44662     0.143386
H190     H     0.22448     0.83402     0.55338     0.143386
H191     H     0.22448     0.83402     0.44662     0.143386
H192     H     0.77552     0.16598     0.55338     0.143386
H193     H     0.18576     0.17387     0.08755     0.164577
H194     H     0.81424     0.82613     0.91245     0.164577
H195     H     0.81424     0.82613     0.08755     0.164577
H196     H     0.18576     0.17387     0.91245     0.164577
H197     H     0.31424     0.67387     0.91245     0.164577
H198     H     0.68576     0.32613     0.08755     0.164577
H199     H     0.68576     0.32613     0.91245     0.164577
H200     H     0.31424     0.67387     0.08755     0.164577
H201     H     0.68576     0.67387     0.58755     0.164577
H202     H     0.31424     0.32613     0.41245     0.164577
H203     H     0.31424     0.32613     0.58755     0.164577
H204     H     0.68576     0.67387     0.41245     0.164577
H205     H     0.81424     0.17387     0.41245     0.164577
H206     H     0.18576     0.82613     0.58755     0.164577
H207     H     0.18576     0.82613     0.41245     0.164577
H208     H     0.81424     0.17387     0.58755     0.164577
H209     H     0.00454     0.21774     0.17405     0.142948
H210     H     0.99546     0.78226     0.82595     0.142948
H211     H     0.99546     0.78226     0.17405     0.142948
H212     H     0.00454     0.21774     0.82595     0.142948
H213     H     0.49546     0.71774     0.82595     0.142948
H214     H     0.50454     0.28226     0.17405     0.142948
H215     H     0.50454     0.28226     0.82595     0.142948
H216     H     0.49546     0.71774     0.17405     0.142948
H217     H     0.50454     0.71774     0.67405     0.142948
H218     H     0.49546     0.28226     0.32595     0.142948
H219     H     0.49546     0.28226     0.67405     0.142948
H220     H     0.50454     0.71774     0.32595     0.142948
H221     H     0.99546     0.21774     0.32595     0.142948
H222     H     0.00454     0.78226     0.67405     0.142948
H223     H     0.00454     0.78226     0.32595     0.142948
H224     H     0.99546     0.21774     0.67405     0.142948
H225     H     0.03735     0.20483     0.14429     0.13619
H226     H     0.96265     0.79517     0.85571     0.13619
H227     H     0.96265     0.79517     0.14429     0.13619
H228     H     0.03735     0.20483     0.85571     0.13619
H229     H     0.46265     0.70483     0.85571     0.13619
H230     H     0.53735     0.29517     0.14429     0.13619
H231     H     0.53735     0.29517     0.85571     0.13619
H232     H     0.46265     0.70483     0.14429     0.13619
H233     H     0.53735     0.70483     0.64429     0.13619
H234     H     0.46265     0.29517     0.35571     0.13619
H235     H     0.46265     0.29517     0.64429     0.13619
H236     H     0.53735     0.70483     0.35571     0.13619
H237     H     0.96265     0.20483     0.35571     0.13619
H238     H     0.03735     0.79517     0.64429     0.13619
H239     H     0.03735     0.79517     0.35571     0.13619
H240     H     0.96265     0.20483     0.64429     0.13619
H241     H     0.06986     0.19471     0.24948     0.139695
H242     H     0.93014     0.80529     0.75052     0.139695
H243     H     0.93014     0.80529     0.24948     0.139695
H244     H     0.06986     0.19471     0.75052     0.139695
H245     H     0.43014     0.69471     0.75052     0.139695
H246     H     0.56986     0.30529     0.24948     0.139695
H247     H     0.56986     0.30529     0.75052     0.139695
H248     H     0.43014     0.69471     0.24948     0.139695
H249     H     0.56986     0.69471     0.74948     0.139695
H250     H     0.43014     0.30529     0.25052     0.139695
H251     H     0.43014     0.30529     0.74948     0.139695
H252     H     0.56986     0.69471     0.25052     0.139695
H253     H     0.93014     0.19471     0.25052     0.139695
H254     H     0.06986     0.80529     0.74948     0.139695
H255     H     0.06986     0.80529     0.25052     0.139695
H256     H     0.93014     0.19471     0.74948     0.139695
H257     H     0.03735     0.20791     0.27985     0.140426
H258     H     0.96265     0.79209     0.72015     0.140426
H259     H     0.96265     0.79209     0.27985     0.140426
H260     H     0.03735     0.20791     0.72015     0.140426
H261     H     0.46265     0.70791     0.72015     0.140426
H262     H     0.53735     0.29209     0.27985     0.140426
H263     H     0.53735     0.29209     0.72015     0.140426
H264     H     0.46265     0.70791     0.27985     0.140426
H265     H     0.53735     0.70791     0.77985     0.140426
H266     H     0.46265     0.29209     0.22015     0.140426
H267     H     0.46265     0.29209     0.77985     0.140426
H268     H     0.53735     0.70791     0.22015     0.140426
H269     H     0.96265     0.20791     0.22015     0.140426
H270     H     0.03735     0.79209     0.77985     0.140426
H271     H     0.03735     0.79209     0.22015     0.140426
H272     H     0.96265     0.20791     0.77985     0.140426
H273     H     0.98709     0.51077     0.18343     0.140241
H274     H     0.01291     0.48923     0.81657     0.140241
H275     H     0.01291     0.48923     0.18343     0.140241
H276     H     0.98709     0.51077     0.81657     0.140241
H277     H     0.51291     0.01077     0.81657     0.140241
H278     H     0.48709     0.98923     0.18343     0.140241
H279     H     0.48709     0.98923     0.81657     0.140241
H280     H     0.51291     0.01077     0.18343     0.140241
H281     H     0.48709     0.01077     0.68343     0.140241
H282     H     0.51291     0.98923     0.31657     0.140241
H283     H     0.51291     0.98923     0.68343     0.140241
H284     H     0.48709     0.01077     0.31657     0.140241
H285     H     0.01291     0.51077     0.31657     0.140241
H286     H     0.98709     0.48923     0.68343     0.140241
H287     H     0.98709     0.48923     0.31657     0.140241
H288     H     0.01291     0.51077     0.68343     0.140241
H289     H     0.01246     0.52554     0.14856     0.135026
H290     H     0.98754     0.47446     0.85144     0.135026
H291     H     0.98754     0.47446     0.14856     0.135026
H292     H     0.01246     0.52554     0.85144     0.135026
H293     H     0.48754     0.02554     0.85144     0.135026
H294     H     0.51246     0.97446     0.14856     0.135026
H295     H     0.51246     0.97446     0.85144     0.135026
H296     H     0.48754     0.02554     0.14856     0.135026
H297     H     0.51246     0.02554     0.64856     0.135026
H298     H     0.48754     0.97446     0.35144     0.135026
H299     H     0.48754     0.97446     0.64856     0.135026
H300     H     0.51246     0.02554     0.35144     0.135026
H301     H     0.98754     0.52554     0.35144     0.135026
H302     H     0.01246     0.47446     0.64856     0.135026
H303     H     0.01246     0.47446     0.35144     0.135026
H304     H     0.98754     0.52554     0.64856     0.135026
H305     H     0.07461     0.52574     0.23158     0.140273
H306     H     0.92539     0.47426     0.76842     0.140273
H307     H     0.92539     0.47426     0.23158     0.140273
H308     H     0.07461     0.52574     0.76842     0.140273
H309     H     0.42539     0.02574     0.76842     0.140273
H310     H     0.57461     0.97426     0.23158     0.140273
H311     H     0.57461     0.97426     0.76842     0.140273
H312     H     0.42539     0.02574     0.23158     0.140273
H313     H     0.57461     0.02574     0.73158     0.140273
H314     H     0.42539     0.97426     0.26842     0.140273
H315     H     0.42539     0.97426     0.73158     0.140273
H316     H     0.57461     0.02574     0.26842     0.140273
H317     H     0.92539     0.52574     0.26842     0.140273
H318     H     0.07461     0.47426     0.73158     0.140273
H319     H     0.07461     0.47426     0.26842     0.140273
H320     H     0.92539     0.52574     0.73158     0.140273
H321     H     0.04962     0.51076     0.26639     0.14117
H322     H     0.95038     0.48924     0.73361     0.14117
H323     H     0.95038     0.48924     0.26639     0.14117
H324     H     0.04962     0.51076     0.73361     0.14117
H325     H     0.45038     0.01076     0.73361     0.14117
H326     H     0.54962     0.98924     0.26639     0.14117
H327     H     0.54962     0.98924     0.73361     0.14117
H328     H     0.45038     0.01076     0.26639     0.14117
H329     H     0.54962     0.01076     0.76639     0.14117
H330     H     0.45038     0.98924     0.23361     0.14117
H331     H     0.45038     0.98924     0.76639     0.14117
H332     H     0.54962     0.01076     0.23361     0.14117
H333     H     0.95038     0.51076     0.23361     0.14117
H334     H     0.04962     0.48924     0.76639     0.14117
H335     H     0.04962     0.48924     0.23361     0.14117
H336     H     0.95038     0.51076     0.76639     0.14117
H337     H     0.12354     0.54357     0.13570     0.165087
H338     H     0.87646     0.45643     0.86430     0.165087
H339     H     0.87646     0.45643     0.13570     0.165087
H340     H     0.12354     0.54357     0.86430     0.165087
H341     H     0.37646     0.04357     0.86430     0.165087
H342     H     0.62354     0.95643     0.13570     0.165087
H343     H     0.62354     0.95643     0.86430     0.165087
H344     H     0.37646     0.04357     0.13570     0.165087
H345     H     0.62354     0.04357     0.63570     0.165087
H346     H     0.37646     0.95643     0.36430     0.165087
H347     H     0.37646     0.95643     0.63570     0.165087
H348     H     0.62354     0.04357     0.36430     0.165087
H349     H     0.87646     0.54357     0.36430     0.165087
H350     H     0.12354     0.45643     0.63570     0.165087
H351     H     0.12354     0.45643     0.36430     0.165087
H352     H     0.87646     0.54357     0.63570     0.165087
H353     H     0.04780     0.56247     0.12321     0.133279
H354     H     0.95220     0.43753     0.87679     0.133279
H355     H     0.95220     0.43753     0.12321     0.133279
H356     H     0.04780     0.56247     0.87679     0.133279
H357     H     0.45220     0.06247     0.87679     0.133279
H358     H     0.54780     0.93753     0.12321     0.133279
H359     H     0.54780     0.93753     0.87679     0.133279
H360     H     0.45220     0.06247     0.12321     0.133279
H361     H     0.54780     0.06247     0.62321     0.133279
H362     H     0.45220     0.93753     0.37679     0.133279
H363     H     0.45220     0.93753     0.62321     0.133279
H364     H     0.54780     0.06247     0.37679     0.133279
H365     H     0.95220     0.56247     0.37679     0.133279
H366     H     0.04780     0.43753     0.62321     0.133279
H367     H     0.04780     0.43753     0.37679     0.133279
H368     H     0.95220     0.56247     0.62321     0.133279
H369     H     0.02466     0.54687     0.15747     0.143877
H370     H     0.97534     0.45313     0.84253     0.143877
H371     H     0.97534     0.45313     0.15747     0.143877
H372     H     0.02466     0.54687     0.84253     0.143877
H373     H     0.47534     0.04687     0.84253     0.143877
H374     H     0.52466     0.95313     0.15747     0.143877
H375     H     0.52466     0.95313     0.84253     0.143877
H376     H     0.47534     0.04687     0.15747     0.143877
H377     H     0.52466     0.04687     0.65747     0.143877
H378     H     0.47534     0.95313     0.34253     0.143877
H379     H     0.47534     0.95313     0.65747     0.143877
H380     H     0.52466     0.04687     0.34253     0.143877
H381     H     0.97534     0.54687     0.34253     0.143877
H382     H     0.02466     0.45313     0.65747     0.143877
H383     H     0.02466     0.45313     0.34253     0.143877
H384     H     0.97534     0.54687     0.65747     0.143877
H385     H     0.81541     0.31529     0.05497     0.15368
H386     H     0.18459     0.68471     0.94503     0.15368
H387     H     0.18459     0.68471     0.05497     0.15368
H388     H     0.81541     0.31529     0.94503     0.15368
H389     H     0.68459     0.81529     0.94503     0.15368
H390     H     0.31541     0.18471     0.05497     0.15368
H391     H     0.31541     0.18471     0.94503     0.15368
H392     H     0.68459     0.81529     0.05497     0.15368
H393     H     0.31541     0.81529     0.55497     0.15368
H394     H     0.68459     0.18471     0.44503     0.15368
H395     H     0.68459     0.18471     0.55497     0.15368
H396     H     0.31541     0.81529     0.44503     0.15368
H397     H     0.18459     0.31529     0.44503     0.15368
H398     H     0.81541     0.68471     0.55497     0.15368
H399     H     0.81541     0.68471     0.44503     0.15368
H400     H     0.18459     0.31529     0.55497     0.15368
H401     H     0.89730     0.32642     0.03257     0.141885
H402     H     0.10270     0.67358     0.96743     0.141885
H403     H     0.10270     0.67358     0.03257     0.141885
H404     H     0.89730     0.32642     0.96743     0.141885
H405     H     0.60270     0.82642     0.96743     0.141885
H406     H     0.39730     0.17358     0.03257     0.141885
H407     H     0.39730     0.17358     0.96743     0.141885
H408     H     0.60270     0.82642     0.03257     0.141885
H409     H     0.39730     0.82642     0.53257     0.141885
H410     H     0.60270     0.17358     0.46743     0.141885
H411     H     0.60270     0.17358     0.53257     0.141885
H412     H     0.39730     0.82642     0.46743     0.141885
H413     H     0.10270     0.32642     0.46743     0.141885
H414     H     0.89730     0.67358     0.53257     0.141885
H415     H     0.89730     0.67358     0.46743     0.141885
H416     H     0.10270     0.32642     0.53257     0.141885
H417     H     0.91460     0.30907     0.06656     0.162707
H418     H     0.08540     0.69093     0.93344     0.162707
H419     H     0.08540     0.69093     0.06656     0.162707
H420     H     0.91460     0.30907     0.93344     0.162707
H421     H     0.58540     0.80907     0.93344     0.162707
H422     H     0.41460     0.19093     0.06656     0.162707
H423     H     0.41460     0.19093     0.93344     0.162707
H424     H     0.58540     0.80907     0.06656     0.162707
H425     H     0.41460     0.80907     0.56656     0.162707
H426     H     0.58540     0.19093     0.43344     0.162707
H427     H     0.58540     0.19093     0.56656     0.162707
H428     H     0.41460     0.80907     0.43344     0.162707
H429     H     0.08540     0.30907     0.43344     0.162707
H430     H     0.91460     0.69093     0.56656     0.162707
H431     H     0.91460     0.69093     0.43344     0.162707
H432     H     0.08540     0.30907     0.56656     0.162707
H433     H     0.02221     0.23894     0.20008     0.140365
H434     H     0.97779     0.76106     0.79992     0.140365
H435     H     0.97779     0.76106     0.20008     0.140365
H436     H     0.02221     0.23894     0.79992     0.140365
H437     H     0.47779     0.73894     0.79992     0.140365
H438     H     0.52221     0.26106     0.20008     0.140365
H439     H     0.52221     0.26106     0.79992     0.140365
H440     H     0.47779     0.73894     0.20008     0.140365
H441     H     0.52221     0.73894     0.70008     0.140365
H442     H     0.47779     0.26106     0.29992     0.140365
H443     H     0.47779     0.26106     0.70008     0.140365
H444     H     0.52221     0.73894     0.29992     0.140365
H445     H     0.97779     0.23894     0.29992     0.140365
H446     H     0.02221     0.76106     0.70008     0.140365
H447     H     0.02221     0.76106     0.29992     0.140365
H448     H     0.97779     0.23894     0.70008     0.140365
H449     H     0.00058     0.25430     0.16286     0.140271
H450     H     0.99942     0.74570     0.83714     0.140271
H451     H     0.99942     0.74570     0.16286     0.140271
H452     H     0.00058     0.25430     0.83714     0.140271
H453     H     0.49942     0.75430     0.83714     0.140271
H454     H     0.50058     0.24570     0.16286     0.140271
H455     H     0.50058     0.24570     0.83714     0.140271
H456     H     0.49942     0.75430     0.16286     0.140271
H457     H     0.50058     0.75430     0.66286     0.140271
H458     H     0.49942     0.24570     0.33714     0.140271
H459     H     0.49942     0.24570     0.66286     0.140271
H460     H     0.50058     0.75430     0.33714     0.140271
H461     H     0.99942     0.25430     0.33714     0.140271
H462     H     0.00058     0.74570     0.66286     0.140271
H463     H     0.00058     0.74570     0.33714     0.140271
H464     H     0.99942     0.25430     0.66286     0.140271
H465     H     0.92248     0.24357     0.20445     0.134697
H466     H     0.07752     0.75643     0.79555     0.134697
H467     H     0.07752     0.75643     0.20445     0.134697
H468     H     0.92248     0.24357     0.79555     0.134697
H469     H     0.57752     0.74357     0.79555     0.134697
H470     H     0.42248     0.25643     0.20445     0.134697
H471     H     0.42248     0.25643     0.79555     0.134697
H472     H     0.57752     0.74357     0.20445     0.134697
H473     H     0.42248     0.74357     0.70445     0.134697
H474     H     0.57752     0.25643     0.29555     0.134697
H475     H     0.57752     0.25643     0.70445     0.134697
H476     H     0.42248     0.74357     0.29555     0.134697
H477     H     0.07752     0.24357     0.29555     0.134697
H478     H     0.92248     0.75643     0.70445     0.134697
H479     H     0.92248     0.75643     0.29555     0.134697
H480     H     0.07752     0.24357     0.70445     0.134697
H481     H     0.94383     0.22899     0.24367     0.14338
H482     H     0.05617     0.77101     0.75633     0.14338
H483     H     0.05617     0.77101     0.24367     0.14338
H484     H     0.94383     0.22899     0.75633     0.14338
H485     H     0.55617     0.72899     0.75633     0.14338
H486     H     0.44383     0.27101     0.24367     0.14338
H487     H     0.44383     0.27101     0.75633     0.14338
H488     H     0.55617     0.72899     0.24367     0.14338
H489     H     0.44383     0.72899     0.74367     0.14338
H490     H     0.55617     0.27101     0.25633     0.14338
H491     H     0.55617     0.27101     0.74367     0.14338
H492     H     0.44383     0.72899     0.25633     0.14338
H493     H     0.05617     0.22899     0.25633     0.14338
H494     H     0.94383     0.77101     0.74367     0.14338
H495     H     0.94383     0.77101     0.25633     0.14338
H496     H     0.05617     0.22899     0.74367     0.14338
H497     H     0.91992     0.26511     0.20281     0.144967
H498     H     0.08008     0.73489     0.79719     0.144967
H499     H     0.08008     0.73489     0.20281     0.144967
H500     H     0.91992     0.26511     0.79719     0.144967
H501     H     0.58008     0.76511     0.79719     0.144967
H502     H     0.41992     0.23489     0.20281     0.144967
H503     H     0.41992     0.23489     0.79719     0.144967
H504     H     0.58008     0.76511     0.20281     0.144967
H505     H     0.41992     0.76511     0.70281     0.144967
H506     H     0.58008     0.23489     0.29719     0.144967
H507     H     0.58008     0.23489     0.70281     0.144967
H508     H     0.41992     0.76511     0.29719     0.144967
H509     H     0.08008     0.26511     0.29719     0.144967
H510     H     0.91992     0.73489     0.70281     0.144967
H511     H     0.91992     0.73489     0.29719     0.144967
H512     H     0.08008     0.26511     0.70281     0.144967
H513     H     0.89831     0.28128     0.16873     0.136809
H514     H     0.10169     0.71872     0.83127     0.136809
H515     H     0.10169     0.71872     0.16873     0.136809
H516     H     0.89831     0.28128     0.83127     0.136809
H517     H     0.60169     0.78128     0.83127     0.136809
H518     H     0.39831     0.21872     0.16873     0.136809
H519     H     0.39831     0.21872     0.83127     0.136809
H520     H     0.60169     0.78128     0.16873     0.136809
H521     H     0.39831     0.78128     0.66873     0.136809
H522     H     0.60169     0.21872     0.33127     0.136809
H523     H     0.60169     0.21872     0.66873     0.136809
H524     H     0.39831     0.78128     0.33127     0.136809
H525     H     0.10169     0.28128     0.33127     0.136809
H526     H     0.89831     0.71872     0.66873     0.136809
H527     H     0.89831     0.71872     0.33127     0.136809
H528     H     0.10169     0.28128     0.66873     0.136809
H529     H     0.94847     0.27353     0.07502     0.161493
H530     H     0.05153     0.72647     0.92498     0.161493
H531     H     0.05153     0.72647     0.07502     0.161493
H532     H     0.94847     0.27353     0.92498     0.161493
H533     H     0.55153     0.77353     0.92498     0.161493
H534     H     0.44847     0.22647     0.07502     0.161493
H535     H     0.44847     0.22647     0.92498     0.161493
H536     H     0.55153     0.77353     0.07502     0.161493
H537     H     0.44847     0.77353     0.57502     0.161493
H538     H     0.55153     0.22647     0.42498     0.161493
H539     H     0.55153     0.22647     0.57502     0.161493
H540     H     0.44847     0.77353     0.42498     0.161493
H541     H     0.05153     0.27353     0.42498     0.161493
H542     H     0.94847     0.72647     0.57502     0.161493
H543     H     0.94847     0.72647     0.42498     0.161493
H544     H     0.05153     0.27353     0.57502     0.161493
H545     H     0.45075     0.68235     0.14104     0.146542
H546     H     0.54925     0.31765     0.85896     0.146542
H547     H     0.54925     0.31765     0.14104     0.146542
H548     H     0.45075     0.68235     0.85896     0.146542
H549     H     0.04925     0.18235     0.85896     0.146542
H550     H     0.95075     0.81765     0.14104     0.146542
H551     H     0.95075     0.81765     0.85896     0.146542
H552     H     0.04925     0.18235     0.14104     0.146542
H553     H     0.95075     0.18235     0.64104     0.146542
H554     H     0.04925     0.81765     0.35896     0.146542
H555     H     0.04925     0.81765     0.64104     0.146542
H556     H     0.95075     0.18235     0.35896     0.146542
H557     H     0.54925     0.68235     0.35896     0.146542
H558     H     0.45075     0.31765     0.64104     0.146542
H559     H     0.45075     0.31765     0.35896     0.146542
H560     H     0.54925     0.68235     0.64104     0.146542
H561     H     0.41604     0.67108     0.10796     0.138322
H562     H     0.58396     0.32892     0.89204     0.138322
H563     H     0.58396     0.32892     0.10796     0.138322
H564     H     0.41604     0.67108     0.89204     0.138322
H565     H     0.08396     0.17108     0.89204     0.138322
H566     H     0.91604     0.82892     0.10796     0.138322
H567     H     0.91604     0.82892     0.89204     0.138322
H568     H     0.08396     0.17108     0.10796     0.138322
H569     H     0.91604     0.17108     0.60796     0.138322
H570     H     0.08396     0.82892     0.39204     0.138322
H571     H     0.08396     0.82892     0.60796     0.138322
H572     H     0.91604     0.17108     0.39204     0.138322
H573     H     0.58396     0.67108     0.39204     0.138322
H574     H     0.41604     0.32892     0.60796     0.138322
H575     H     0.41604     0.32892     0.39204     0.138322
H576     H     0.58396     0.67108     0.60796     0.138322
H577     H     0.35387     0.68824     0.17233     0.159296
H578     H     0.64613     0.31176     0.82767     0.159296
H579     H     0.64613     0.31176     0.17233     0.159296
H580     H     0.35387     0.68824     0.82767     0.159296
H581     H     0.14613     0.18824     0.82767     0.159296
H582     H     0.85387     0.81176     0.17233     0.159296
H583     H     0.85387     0.81176     0.82767     0.159296
H584     H     0.14613     0.18824     0.17233     0.159296
H585     H     0.85387     0.18824     0.67233     0.159296
H586     H     0.14613     0.81176     0.32767     0.159296
H587     H     0.14613     0.81176     0.67233     0.159296
H588     H     0.85387     0.18824     0.32767     0.159296
H589     H     0.64613     0.68824     0.32767     0.159296
H590     H     0.35387     0.31176     0.67233     0.159296
H591     H     0.35387     0.31176     0.32767     0.159296
H592     H     0.64613     0.68824     0.67233     0.159296
