#======================================================================

# CRYSTAL DATA

#----------------------------------------------------------------------

data_VESTA_phase_1


_chemical_name_common                  ''
_cell_length_a                         23.52680
_cell_length_b                         23.52680
_cell_length_c                         37.15450
_cell_angle_alpha                      90
_cell_angle_beta                       90
_cell_angle_gamma                      120
_space_group_name_H-M_alt              'P 1'
_space_group_IT_number                 1

loop_
_space_group_symop_operation_xyz
   'x, y, z'

loop_
_atom_site_label
_atom_site_type_symbol
_atom_site_fract_x
_atom_site_fract_y
_atom_site_fract_z
_atom_site_charge
H1     H     0.30693     0.26956     0.11361     0.097192
H2     H     0.69307     0.73044     0.88639     0.097193
H3     H     0.73044     0.03737     0.11361     0.097192
H4     H     0.26956     0.96263     0.88639     0.097192
H5     H     0.96263     0.69307     0.11361     0.097194
H6     H     0.03737     0.30693     0.88639     0.097194
H7     H     0.69307     0.73044     0.11361     0.097193
H8     H     0.30693     0.26956     0.88639     0.097192
H9     H     0.26956     0.96263     0.11361     0.097192
H10     H     0.73044     0.03737     0.88639     0.097192
H11     H     0.03737     0.30693     0.11361     0.097194
H12     H     0.96263     0.69307     0.88639     0.097194
H13     H     0.26956     0.30693     0.38639     0.097194
H14     H     0.73044     0.69307     0.61361     0.097194
H15     H     0.03737     0.73044     0.38639     0.097193
H16     H     0.96263     0.26956     0.61361     0.097192
H17     H     0.69307     0.96263     0.38639     0.097192
H18     H     0.30693     0.03737     0.61361     0.097192
H19     H     0.73044     0.69307     0.38639     0.097194
H20     H     0.26956     0.30693     0.61361     0.097194
H21     H     0.96263     0.26956     0.38639     0.097192
H22     H     0.03737     0.73044     0.61361     0.097193
H23     H     0.30693     0.03737     0.38639     0.097192
H24     H     0.69307     0.96263     0.61361     0.097192
H25     H     0.51007     0.29139     0.09653     0.162219
H26     H     0.48993     0.70861     0.90347     0.16222
H27     H     0.70861     0.21868     0.09653     0.162219
H28     H     0.29139     0.78132     0.90347     0.16222
H29     H     0.78132     0.48993     0.09653     0.162221
H30     H     0.21868     0.51007     0.90347     0.16222
H31     H     0.48993     0.70861     0.09653     0.16222
H32     H     0.51007     0.29139     0.90347     0.162219
H33     H     0.29139     0.78132     0.09653     0.16222
H34     H     0.70861     0.21868     0.90347     0.162219
H35     H     0.21868     0.51007     0.09653     0.16222
H36     H     0.78132     0.48993     0.90347     0.162221
H37     H     0.29139     0.51007     0.40347     0.16222
H38     H     0.70861     0.48993     0.59653     0.162221
H39     H     0.21868     0.70861     0.40347     0.16222
H40     H     0.78132     0.29139     0.59653     0.162219
H41     H     0.48993     0.78132     0.40347     0.16222
H42     H     0.51007     0.21868     0.59653     0.162219
H43     H     0.70861     0.48993     0.40347     0.162221
H44     H     0.29139     0.51007     0.59653     0.16222
H45     H     0.78132     0.29139     0.40347     0.162219
H46     H     0.21868     0.70861     0.59653     0.16222
H47     H     0.51007     0.21868     0.40347     0.162219
H48     H     0.48993     0.78132     0.59653     0.16222
H49     H     0.34683     0.13224     0.18242     0.132691
H50     H     0.65317     0.86776     0.81758     0.13269
H51     H     0.86776     0.21459     0.18242     0.13269
H52     H     0.13224     0.78541     0.81758     0.13269
H53     H     0.78541     0.65317     0.18242     0.13269
H54     H     0.21459     0.34683     0.81758     0.13269
H55     H     0.65317     0.86776     0.18242     0.13269
H56     H     0.34683     0.13224     0.81758     0.132691
H57     H     0.13224     0.78541     0.18242     0.132691
H58     H     0.86776     0.21459     0.81758     0.13269
H59     H     0.21459     0.34683     0.18242     0.13269
H60     H     0.78541     0.65317     0.81758     0.13269
H61     H     0.13224     0.34683     0.31758     0.13269
H62     H     0.86776     0.65317     0.68242     0.13269
H63     H     0.21459     0.86776     0.31758     0.13269
H64     H     0.78541     0.13224     0.68242     0.132691
H65     H     0.65317     0.78541     0.31758     0.13269
H66     H     0.34683     0.21459     0.68242     0.13269
H67     H     0.86776     0.65317     0.31758     0.13269
H68     H     0.13224     0.34683     0.68242     0.13269
H69     H     0.78541     0.13224     0.31758     0.132691
H70     H     0.21459     0.86776     0.68242     0.13269
H71     H     0.34683     0.21459     0.31758     0.13269
H72     H     0.65317     0.78541     0.68242     0.132691
H73     H     0.32383     0.20904     0.15147     0.129094
H74     H     0.67617     0.79096     0.84853     0.129094
H75     H     0.79096     0.11479     0.15147     0.129094
H76     H     0.20904     0.88521     0.84853     0.129094
H77     H     0.88521     0.67617     0.15147     0.129093
H78     H     0.11479     0.32383     0.84853     0.129094
H79     H     0.67617     0.79096     0.15147     0.129094
H80     H     0.32383     0.20904     0.84853     0.129094
H81     H     0.20904     0.88521     0.15147     0.129094
H82     H     0.79096     0.11479     0.84853     0.129094
H83     H     0.11479     0.32383     0.15147     0.129094
H84     H     0.88521     0.67617     0.84853     0.129093
H85     H     0.20904     0.32383     0.34853     0.129094
H86     H     0.79096     0.67617     0.65147     0.129093
H87     H     0.11479     0.79096     0.34853     0.129094
H88     H     0.88521     0.20904     0.65147     0.129094
H89     H     0.67617     0.88521     0.34853     0.129094
H90     H     0.32383     0.11479     0.65147     0.129094
H91     H     0.79096     0.67617     0.34853     0.129093
H92     H     0.20904     0.32383     0.65147     0.129094
H93     H     0.88521     0.20904     0.34853     0.129094
H94     H     0.11479     0.79096     0.65147     0.129094
H95     H     0.32383     0.11479     0.34853     0.129094
H96     H     0.67617     0.88521     0.65147     0.129094
H97     H     0.23953     0.40393     0.05213     0.144602
H98     H     0.76047     0.59607     0.94787     0.144602
H99     H     0.59607     0.83560     0.05213     0.1446
H100     H     0.40393     0.16440     0.94787     0.144602
H101     H     0.16440     0.76047     0.05213     0.144602
H102     H     0.83560     0.23953     0.94787     0.144602
H103     H     0.76047     0.59607     0.05213     0.144602
H104     H     0.23953     0.40393     0.94787     0.144602
H105     H     0.40393     0.16440     0.05213     0.144602
H106     H     0.59607     0.83560     0.94787     0.1446
H107     H     0.83560     0.23953     0.05213     0.144602
H108     H     0.16440     0.76047     0.94787     0.144602
H109     H     0.40393     0.23953     0.44787     0.144602
H110     H     0.59607     0.76047     0.55213     0.144602
H111     H     0.83560     0.59607     0.44787     0.144602
H112     H     0.16440     0.40393     0.55213     0.144602
H113     H     0.76047     0.16440     0.44787     0.144602
H114     H     0.23953     0.83560     0.55213     0.1446
H115     H     0.59607     0.76047     0.44787     0.144602
H116     H     0.40393     0.23953     0.55213     0.144602
H117     H     0.16440     0.40393     0.44787     0.144602
H118     H     0.83560     0.59607     0.55213     0.144602
H119     H     0.23953     0.83560     0.44787     0.1446
H120     H     0.76047     0.16440     0.55213     0.144602
H121     H     0.44769     0.49913     0.03343     0.139417
H122     H     0.55231     0.50087     0.96657     0.139417
H123     H     0.50087     0.94856     0.03343     0.139416
H124     H     0.49913     0.05144     0.96657     0.139416
H125     H     0.05144     0.55231     0.03343     0.139417
H126     H     0.94856     0.44769     0.96657     0.139416
H127     H     0.55231     0.50087     0.03343     0.139417
H128     H     0.44769     0.49913     0.96657     0.139417
H129     H     0.49913     0.05144     0.03343     0.139416
H130     H     0.50087     0.94856     0.96657     0.139416
H131     H     0.94856     0.44769     0.03343     0.139416
H132     H     0.05144     0.55231     0.96657     0.139417
H133     H     0.49913     0.44769     0.46657     0.139416
H134     H     0.50087     0.55231     0.53343     0.139417
H135     H     0.94856     0.50087     0.46657     0.139417
H136     H     0.05144     0.49913     0.53343     0.139417
H137     H     0.55231     0.05144     0.46657     0.139416
H138     H     0.44769     0.94856     0.53343     0.139416
H139     H     0.50087     0.55231     0.46657     0.139417
H140     H     0.49913     0.44769     0.53343     0.139416
H141     H     0.05144     0.49913     0.46657     0.139417
H142     H     0.94856     0.50087     0.53343     0.139417
H143     H     0.44769     0.94856     0.46657     0.139416
H144     H     0.55231     0.05144     0.53343     0.139416
H145     H     0.45366     0.41375     0.06829     0.156757
H146     H     0.54634     0.58625     0.93171     0.156757
H147     H     0.58625     0.03991     0.06829     0.156759
H148     H     0.41375     0.96009     0.93171     0.156758
H149     H     0.96009     0.54634     0.06829     0.156758
H150     H     0.03991     0.45366     0.93171     0.156758
H151     H     0.54634     0.58625     0.06829     0.156757
H152     H     0.45366     0.41375     0.93171     0.156758
H153     H     0.41375     0.96009     0.06829     0.156758
H154     H     0.58625     0.03991     0.93171     0.156759
H155     H     0.03991     0.45366     0.06829     0.156758
H156     H     0.96009     0.54634     0.93171     0.156758
H157     H     0.41375     0.45366     0.43171     0.156758
H158     H     0.58625     0.54634     0.56829     0.156758
H159     H     0.03991     0.58625     0.43171     0.156757
H160     H     0.96009     0.41375     0.56829     0.156757
H161     H     0.54634     0.96009     0.43171     0.156758
H162     H     0.45366     0.03991     0.56829     0.156759
H163     H     0.58625     0.54634     0.43171     0.156758
H164     H     0.41375     0.45366     0.56829     0.156758
H165     H     0.96009     0.41375     0.43171     0.156757
H166     H     0.03991     0.58625     0.56829     0.156757
H167     H     0.45366     0.03991     0.43171     0.156759
H168     H     0.54634     0.96009     0.56829     0.156758
H169     H     0.35762     0.03848     0.17787     0.128555
H170     H     0.64238     0.96152     0.82213     0.128555
H171     H     0.96152     0.31914     0.17787     0.128555
H172     H     0.03848     0.68086     0.82213     0.128555
H173     H     0.68086     0.64238     0.17787     0.128556
H174     H     0.31914     0.35762     0.82213     0.128555
H175     H     0.64238     0.96152     0.17787     0.128555
H176     H     0.35762     0.03848     0.82213     0.128555
H177     H     0.03848     0.68086     0.17787     0.128555
H178     H     0.96152     0.31914     0.82213     0.128555
H179     H     0.31914     0.35762     0.17787     0.128555
H180     H     0.68086     0.64238     0.82213     0.128556
H181     H     0.03848     0.35762     0.32213     0.128555
H182     H     0.96152     0.64238     0.67787     0.128556
H183     H     0.31914     0.96152     0.32213     0.128555
H184     H     0.68086     0.03848     0.67787     0.128555
H185     H     0.64238     0.68086     0.32213     0.128555
H186     H     0.35762     0.31914     0.67787     0.128555
H187     H     0.96152     0.64238     0.32213     0.128556
H188     H     0.03848     0.35762     0.67787     0.128555
H189     H     0.68086     0.03848     0.32213     0.128555
H190     H     0.31914     0.96152     0.67787     0.128555
H191     H     0.35762     0.31914     0.32213     0.128555
H192     H     0.64238     0.68086     0.67787     0.128555
H193     H     0.38156     0.96999     0.21680     0.138326
H194     H     0.61844     0.03001     0.78320     0.138326
H195     H     0.03001     0.41157     0.21680     0.138326
H196     H     0.96999     0.58843     0.78320     0.138326
H197     H     0.58843     0.61844     0.21680     0.138325
H198     H     0.41157     0.38156     0.78320     0.138325
H199     H     0.61844     0.03001     0.21680     0.138326
H200     H     0.38156     0.96999     0.78320     0.138326
H201     H     0.96999     0.58843     0.21680     0.138326
H202     H     0.03001     0.41157     0.78320     0.138326
H203     H     0.41157     0.38156     0.21680     0.138325
H204     H     0.58843     0.61844     0.78320     0.138325
H205     H     0.96999     0.38156     0.28320     0.138325
H206     H     0.03001     0.61844     0.71680     0.138325
H207     H     0.41157     0.03001     0.28320     0.138326
H208     H     0.58843     0.96999     0.71680     0.138326
H209     H     0.61844     0.58843     0.28320     0.138326
H210     H     0.38156     0.41157     0.71680     0.138326
H211     H     0.03001     0.61844     0.28320     0.138325
H212     H     0.96999     0.38156     0.71680     0.138325
H213     H     0.58843     0.96999     0.28320     0.138326
H214     H     0.41157     0.03001     0.71680     0.138326
H215     H     0.38156     0.41157     0.28320     0.138326
H216     H     0.61844     0.58843     0.71680     0.138326
H217     H     0.58619     0.11983     0.21788     0.14017
H218     H     0.41381     0.88017     0.78212     0.14017
H219     H     0.88017     0.46636     0.21788     0.140169
H220     H     0.11983     0.53364     0.78212     0.14017
H221     H     0.53364     0.41381     0.21788     0.140169
H222     H     0.46636     0.58619     0.78212     0.140169
H223     H     0.41381     0.88017     0.21788     0.14017
H224     H     0.58619     0.11983     0.78212     0.14017
H225     H     0.11983     0.53364     0.21788     0.14017
H226     H     0.88017     0.46636     0.78212     0.140169
H227     H     0.46636     0.58619     0.21788     0.140169
H228     H     0.53364     0.41381     0.78212     0.140169
H229     H     0.11983     0.58619     0.28212     0.140169
H230     H     0.88017     0.41381     0.71788     0.140169
H231     H     0.46636     0.88017     0.28212     0.14017
H232     H     0.53364     0.11983     0.71788     0.14017
H233     H     0.41381     0.53364     0.28212     0.14017
H234     H     0.58619     0.46636     0.71788     0.140169
H235     H     0.88017     0.41381     0.28212     0.140169
H236     H     0.11983     0.58619     0.71788     0.140169
H237     H     0.53364     0.11983     0.28212     0.14017
H238     H     0.46636     0.88017     0.71788     0.14017
H239     H     0.58619     0.46636     0.28212     0.140169
H240     H     0.41381     0.53364     0.71788     0.14017
H241     H     0.56173     0.18990     0.18149     0.133932
H242     H     0.43827     0.81010     0.81851     0.133932
H243     H     0.81010     0.37183     0.18149     0.133932
H244     H     0.18990     0.62817     0.81851     0.133932
H245     H     0.62817     0.43827     0.18149     0.133932
H246     H     0.37183     0.56173     0.81851     0.133933
H247     H     0.43827     0.81010     0.18149     0.133932
H248     H     0.56173     0.18990     0.81851     0.133932
H249     H     0.18990     0.62817     0.18149     0.133932
H250     H     0.81010     0.37183     0.81851     0.133932
H251     H     0.37183     0.56173     0.18149     0.133933
H252     H     0.62817     0.43827     0.81851     0.133932
H253     H     0.18990     0.56173     0.31851     0.133933
H254     H     0.81010     0.43827     0.68149     0.133932
H255     H     0.37183     0.81010     0.31851     0.133932
H256     H     0.62817     0.18990     0.68149     0.133932
H257     H     0.43827     0.62817     0.31851     0.133932
H258     H     0.56173     0.37183     0.68149     0.133932
H259     H     0.81010     0.43827     0.31851     0.133932
H260     H     0.18990     0.56173     0.68149     0.133933
H261     H     0.62817     0.18990     0.31851     0.133932
H262     H     0.37183     0.81010     0.68149     0.133932
H263     H     0.56173     0.37183     0.31851     0.133932
H264     H     0.43827     0.62817     0.68149     0.133932
H265     H     0.43969     0.66078     0.56706     0.139943
H266     H     0.56031     0.33922     0.43294     0.139943
H267     H     0.33922     0.77891     0.56706     0.139943
H268     H     0.66078     0.22109     0.43294     0.139943
H269     H     0.22109     0.56031     0.56706     0.139943
H270     H     0.77891     0.43969     0.43294     0.139944
H271     H     0.56031     0.33922     0.56706     0.139943
H272     H     0.43969     0.66078     0.43294     0.139943
H273     H     0.66078     0.22109     0.56706     0.139943
H274     H     0.33922     0.77891     0.43294     0.139943
H275     H     0.77891     0.43969     0.56706     0.139944
H276     H     0.22109     0.56031     0.43294     0.139943
H277     H     0.66078     0.43969     0.93294     0.139944
H278     H     0.33922     0.56031     0.06706     0.139943
H279     H     0.77891     0.33922     0.93294     0.139943
H280     H     0.22109     0.66078     0.06706     0.139943
H281     H     0.56031     0.22109     0.93294     0.139943
H282     H     0.43969     0.77891     0.06706     0.139943
H283     H     0.33922     0.56031     0.93294     0.139943
H284     H     0.66078     0.43969     0.06706     0.139944
H285     H     0.22109     0.66078     0.93294     0.139943
H286     H     0.77891     0.33922     0.06706     0.139943
H287     H     0.43969     0.77891     0.93294     0.139943
H288     H     0.56031     0.22109     0.06706     0.139943
H289     H     0.31862     0.24486     0.58775     0.130079
H290     H     0.68138     0.75514     0.41225     0.130079
H291     H     0.75514     0.07376     0.58775     0.13008
H292     H     0.24486     0.92624     0.41225     0.13008
H293     H     0.92624     0.68138     0.58775     0.130079
H294     H     0.07376     0.31862     0.41225     0.130079
H295     H     0.68138     0.75514     0.58775     0.130079
H296     H     0.31862     0.24486     0.41225     0.130079
H297     H     0.24486     0.92624     0.58775     0.13008
H298     H     0.75514     0.07376     0.41225     0.13008
H299     H     0.07376     0.31862     0.58775     0.130079
H300     H     0.92624     0.68138     0.41225     0.130079
H301     H     0.24486     0.31862     0.91225     0.130079
H302     H     0.75514     0.68138     0.08775     0.130079
H303     H     0.07376     0.75514     0.91225     0.130079
H304     H     0.92624     0.24486     0.08775     0.130079
H305     H     0.68138     0.92624     0.91225     0.13008
H306     H     0.31862     0.07376     0.08775     0.13008
H307     H     0.75514     0.68138     0.91225     0.130079
H308     H     0.24486     0.31862     0.08775     0.130079
H309     H     0.92624     0.24486     0.91225     0.130079
H310     H     0.07376     0.75514     0.08775     0.130079
H311     H     0.31862     0.07376     0.91225     0.13008
H312     H     0.68138     0.92624     0.08775     0.13008
H313     H     0.33333     0.66667     0.56590     0.124243
H314     H     0.66667     0.33333     0.43410     0.124243
H315     H     0.66667     0.33333     0.56590     0.124243
H316     H     0.33333     0.66667     0.43410     0.124243
H317     H     0.66667     0.33333     0.93410     0.124243
H318     H     0.33333     0.66667     0.06590     0.124243
H319     H     0.33333     0.66667     0.93410     0.124243
H320     H     0.66667     0.33333     0.06590     0.124243
C1     C     0.35155     0.30666     0.10098     0.019321
C2     C     0.64845     0.69334     0.89902     0.019319
C3     C     0.69334     0.04489     0.10098     0.019319
C4     C     0.30666     0.95511     0.89902     0.01932
C5     C     0.95511     0.64845     0.10098     0.019317
C6     C     0.04489     0.35155     0.89902     0.019319
C7     C     0.64845     0.69334     0.10098     0.019319
C8     C     0.35155     0.30666     0.89902     0.019321
C9     C     0.30666     0.95511     0.10098     0.01932
C10     C     0.69334     0.04489     0.89902     0.019319
C11     C     0.04489     0.35155     0.10098     0.019319
C12     C     0.95511     0.64845     0.89902     0.019317
C13     C     0.30666     0.35155     0.39902     0.019319
C14     C     0.69334     0.64845     0.60098     0.019317
C15     C     0.04489     0.69334     0.39902     0.019319
C16     C     0.95511     0.30666     0.60098     0.019321
C17     C     0.64845     0.95511     0.39902     0.01932
C18     C     0.35155     0.04489     0.60098     0.019319
C19     C     0.69334     0.64845     0.39902     0.019317
C20     C     0.30666     0.35155     0.60098     0.019319
C21     C     0.95511     0.30666     0.39902     0.019321
C22     C     0.04489     0.69334     0.60098     0.019319
C23     C     0.35155     0.04489     0.39902     0.019319
C24     C     0.64845     0.95511     0.60098     0.01932
C25     C     0.47407     0.25630     0.11506     -0.2742
C26     C     0.52593     0.74370     0.88494     -0.274199
C27     C     0.74370     0.21777     0.11506     -0.274204
C28     C     0.25630     0.78223     0.88494     -0.274199
C29     C     0.78223     0.52593     0.11506     -0.274197
C30     C     0.21777     0.47407     0.88494     -0.274201
C31     C     0.52593     0.74370     0.11506     -0.274199
C32     C     0.47407     0.25630     0.88494     -0.2742
C33     C     0.25630     0.78223     0.11506     -0.274199
C34     C     0.74370     0.21777     0.88494     -0.274204
C35     C     0.21777     0.47407     0.11506     -0.274201
C36     C     0.78223     0.52593     0.88494     -0.274197
C37     C     0.25630     0.47407     0.38494     -0.274201
C38     C     0.74370     0.52593     0.61506     -0.274197
C39     C     0.21777     0.74370     0.38494     -0.274199
C40     C     0.78223     0.25630     0.61506     -0.2742
C41     C     0.52593     0.78223     0.38494     -0.274199
C42     C     0.47407     0.21777     0.61506     -0.274204
C43     C     0.74370     0.52593     0.38494     -0.274197
C44     C     0.25630     0.47407     0.61506     -0.274201
C45     C     0.78223     0.25630     0.38494     -0.2742
C46     C     0.21777     0.74370     0.61506     -0.274199
C47     C     0.47407     0.21777     0.38494     -0.274204
C48     C     0.52593     0.78223     0.61506     -0.274199
C49     C     0.48713     0.21174     0.13279     0.275372
C50     C     0.51287     0.78826     0.86721     0.27537
C51     C     0.78826     0.27539     0.13279     0.275375
C52     C     0.21174     0.72461     0.86721     0.275369
C53     C     0.72461     0.51287     0.13279     0.275362
C54     C     0.27539     0.48713     0.86721     0.275371
C55     C     0.51287     0.78826     0.13279     0.27537
C56     C     0.48713     0.21174     0.86721     0.275372
C57     C     0.21174     0.72461     0.13279     0.275369
C58     C     0.78826     0.27539     0.86721     0.275375
C59     C     0.27539     0.48713     0.13279     0.275371
C60     C     0.72461     0.51287     0.86721     0.275362
C61     C     0.21174     0.48713     0.36721     0.275371
C62     C     0.78826     0.51287     0.63279     0.275362
C63     C     0.27539     0.78826     0.36721     0.27537
C64     C     0.72461     0.21174     0.63279     0.275372
C65     C     0.51287     0.72461     0.36721     0.275369
C66     C     0.48713     0.27539     0.63279     0.275375
C67     C     0.78826     0.51287     0.36721     0.275361
C68     C     0.21174     0.48713     0.63279     0.275371
C69     C     0.72461     0.21174     0.36721     0.275372
C70     C     0.27539     0.78826     0.63279     0.27537
C71     C     0.48713     0.27539     0.36721     0.275375
C72     C     0.51287     0.72461     0.63279     0.275369
C73     C     0.44156     0.16589     0.15716     -0.19897
C74     C     0.55844     0.83411     0.84284     -0.19897
C75     C     0.83411     0.27567     0.15716     -0.198973
C76     C     0.16589     0.72433     0.84284     -0.198967
C77     C     0.72433     0.55844     0.15716     -0.198961
C78     C     0.27567     0.44156     0.84284     -0.19897
C79     C     0.55844     0.83411     0.15716     -0.198971
C80     C     0.44156     0.16589     0.84284     -0.19897
C81     C     0.16589     0.72433     0.15716     -0.198967
C82     C     0.83411     0.27567     0.84284     -0.198973
C83     C     0.27567     0.44156     0.15716     -0.19897
C84     C     0.72433     0.55844     0.84284     -0.198961
C85     C     0.16589     0.44156     0.34284     -0.19897
C86     C     0.83411     0.55844     0.65716     -0.198961
C87     C     0.27567     0.83411     0.34284     -0.19897
C88     C     0.72433     0.16589     0.65716     -0.19897
C89     C     0.55844     0.72433     0.34284     -0.198967
C90     C     0.44156     0.27567     0.65716     -0.198973
C91     C     0.83411     0.55844     0.34284     -0.198961
C92     C     0.16589     0.44156     0.65716     -0.19897
C93     C     0.72433     0.16589     0.34284     -0.19897
C94     C     0.27567     0.83411     0.65716     -0.198971
C95     C     0.44156     0.27567     0.34284     -0.198973
C96     C     0.55844     0.72433     0.65716     -0.198967
C97     C     0.38234     0.16558     0.16312     -0.053738
C98     C     0.61766     0.83442     0.83688     -0.053738
C99     C     0.83442     0.21676     0.16312     -0.053737
C100     C     0.16558     0.78324     0.83688     -0.053739
C101     C     0.78324     0.61766     0.16312     -0.05374
C102     C     0.21676     0.38234     0.83688     -0.053739
C103     C     0.61766     0.83442     0.16312     -0.053738
C104     C     0.38234     0.16558     0.83688     -0.053738
C105     C     0.16558     0.78324     0.16312     -0.053739
C106     C     0.83442     0.21676     0.83688     -0.053737
C107     C     0.21676     0.38234     0.16312     -0.053739
C108     C     0.78324     0.61766     0.83688     -0.05374
C109     C     0.16558     0.38234     0.33688     -0.053739
C110     C     0.83442     0.61766     0.66312     -0.05374
C111     C     0.21676     0.83442     0.33688     -0.053738
C112     C     0.78324     0.16558     0.66312     -0.053738
C113     C     0.61766     0.78324     0.33688     -0.053739
C114     C     0.38234     0.21676     0.66312     -0.053737
C115     C     0.83442     0.61766     0.33688     -0.05374
C116     C     0.16558     0.38234     0.66312     -0.053739
C117     C     0.78324     0.16558     0.33688     -0.053738
C118     C     0.21676     0.83442     0.66312     -0.053738
C119     C     0.38234     0.21676     0.33688     -0.053737
C120     C     0.61766     0.78324     0.66312     -0.053739
C121     C     0.36921     0.21011     0.14532     -0.221875
C122     C     0.63079     0.78989     0.85468     -0.221874
C123     C     0.78989     0.15910     0.14532     -0.221874
C124     C     0.21011     0.84090     0.85468     -0.221873
C125     C     0.84090     0.63079     0.14532     -0.221871
C126     C     0.15910     0.36921     0.85468     -0.221874
C127     C     0.63079     0.78989     0.14532     -0.221874
C128     C     0.36921     0.21011     0.85468     -0.221875
C129     C     0.21011     0.84090     0.14532     -0.221873
C130     C     0.78989     0.15910     0.85468     -0.221874
C131     C     0.15910     0.36921     0.14532     -0.221874
C132     C     0.84090     0.63079     0.85468     -0.221871
C133     C     0.21011     0.36921     0.35468     -0.221874
C134     C     0.78989     0.63079     0.64532     -0.221871
C135     C     0.15910     0.78989     0.35468     -0.221874
C136     C     0.84090     0.21011     0.64532     -0.221875
C137     C     0.63079     0.84090     0.35468     -0.221873
C138     C     0.36921     0.15910     0.64532     -0.221874
C139     C     0.78989     0.63079     0.35468     -0.221871
C140     C     0.21011     0.36921     0.64532     -0.221874
C141     C     0.84090     0.21011     0.35468     -0.221875
C142     C     0.15910     0.78989     0.64532     -0.221874
C143     C     0.36921     0.15910     0.35468     -0.221874
C144     C     0.63079     0.84090     0.64532     -0.221873
C145     C     0.41520     0.25596     0.12101     0.074041
C146     C     0.58480     0.74404     0.87899     0.074037
C147     C     0.74404     0.15924     0.12101     0.074039
C148     C     0.25596     0.84076     0.87899     0.074038
C149     C     0.84076     0.58480     0.12101     0.074035
C150     C     0.15924     0.41520     0.87899     0.074039
C151     C     0.58480     0.74404     0.12101     0.074038
C152     C     0.41520     0.25596     0.87899     0.074041
C153     C     0.25596     0.84076     0.12101     0.074038
C154     C     0.74404     0.15924     0.87899     0.074039
C155     C     0.15924     0.41520     0.12101     0.074039
C156     C     0.84076     0.58480     0.87899     0.074035
C157     C     0.25596     0.41520     0.37899     0.074039
C158     C     0.74404     0.58480     0.62101     0.074035
C159     C     0.15924     0.74404     0.37899     0.074037
C160     C     0.84076     0.25596     0.62101     0.074041
C161     C     0.58480     0.84076     0.37899     0.074038
C162     C     0.41520     0.15924     0.62101     0.074039
C163     C     0.74404     0.58480     0.37899     0.074035
C164     C     0.25596     0.41520     0.62101     0.074039
C165     C     0.84076     0.25596     0.37899     0.074041
C166     C     0.15924     0.74404     0.62101     0.074038
C167     C     0.41520     0.15924     0.37899     0.074039
C168     C     0.58480     0.84076     0.62101     0.074038
C169     C     0.28939     0.35759     0.07585     -0.102127
C170     C     0.71061     0.64241     0.92415     -0.102128
C171     C     0.64241     0.93180     0.07585     -0.102127
C172     C     0.35759     0.06820     0.92415     -0.102128
C173     C     0.06820     0.71061     0.07585     -0.102128
C174     C     0.93180     0.28939     0.92415     -0.102128
C175     C     0.71061     0.64241     0.07585     -0.102128
C176     C     0.28939     0.35759     0.92415     -0.102127
C177     C     0.35759     0.06820     0.07585     -0.102128
C178     C     0.64241     0.93180     0.92415     -0.102127
C179     C     0.93180     0.28939     0.07585     -0.102128
C180     C     0.06820     0.71061     0.92415     -0.102128
C181     C     0.35759     0.28939     0.42415     -0.102128
C182     C     0.64241     0.71061     0.57585     -0.102128
C183     C     0.93180     0.64241     0.42415     -0.102128
C184     C     0.06820     0.35759     0.57585     -0.102127
C185     C     0.71061     0.06820     0.42415     -0.102128
C186     C     0.28939     0.93180     0.57585     -0.102127
C187     C     0.64241     0.71061     0.42415     -0.102128
C188     C     0.35759     0.28939     0.57585     -0.102128
C189     C     0.06820     0.35759     0.42415     -0.102127
C190     C     0.93180     0.64241     0.57585     -0.102128
C191     C     0.28939     0.93180     0.42415     -0.102127
C192     C     0.71061     0.06820     0.57585     -0.102128
C193     C     0.28625     0.40602     0.05560     -0.12685
C194     C     0.71375     0.59398     0.94440     -0.12685
C195     C     0.59398     0.88023     0.05560     -0.126849
C196     C     0.40602     0.11977     0.94440     -0.12685
C197     C     0.11977     0.71375     0.05560     -0.126849
C198     C     0.88023     0.28625     0.94440     -0.126849
C199     C     0.71375     0.59398     0.05560     -0.12685
C200     C     0.28625     0.40602     0.94440     -0.12685
C201     C     0.40602     0.11977     0.05560     -0.12685
C202     C     0.59398     0.88023     0.94440     -0.126849
C203     C     0.88023     0.28625     0.05560     -0.126849
C204     C     0.11977     0.71375     0.94440     -0.126849
C205     C     0.40602     0.28625     0.44440     -0.126849
C206     C     0.59398     0.71375     0.55560     -0.126849
C207     C     0.88023     0.59398     0.44440     -0.12685
C208     C     0.11977     0.40602     0.55560     -0.12685
C209     C     0.71375     0.11977     0.44440     -0.12685
C210     C     0.28625     0.88023     0.55560     -0.126849
C211     C     0.59398     0.71375     0.44440     -0.126849
C212     C     0.40602     0.28625     0.55560     -0.126849
C213     C     0.11977     0.40602     0.44440     -0.12685
C214     C     0.88023     0.59398     0.55560     -0.12685
C215     C     0.28625     0.88023     0.44440     -0.126849
C216     C     0.71375     0.11977     0.55560     -0.12685
C217     C     0.34318     0.45682     0.03988     -0.019622
C218     C     0.65682     0.54318     0.96012     -0.019622
C219     C     0.54318     0.88636     0.03988     -0.019623
C220     C     0.45682     0.11364     0.96012     -0.019622
C221     C     0.11364     0.65682     0.03988     -0.019622
C222     C     0.88636     0.34318     0.96012     -0.019622
C223     C     0.65682     0.54318     0.03988     -0.019622
C224     C     0.34318     0.45682     0.96012     -0.019622
C225     C     0.45682     0.11364     0.03988     -0.019622
C226     C     0.54318     0.88636     0.96012     -0.019623
C227     C     0.88636     0.34318     0.03988     -0.019622
C228     C     0.11364     0.65682     0.96012     -0.019622
C229     C     0.45682     0.34318     0.46012     -0.019621
C230     C     0.54318     0.65682     0.53988     -0.019622
C231     C     0.88636     0.54318     0.46012     -0.019622
C232     C     0.11364     0.45682     0.53988     -0.019622
C233     C     0.65682     0.11364     0.46012     -0.019622
C234     C     0.34318     0.88636     0.53988     -0.019623
C235     C     0.54318     0.65682     0.46012     -0.019622
C236     C     0.45682     0.34318     0.53988     -0.019621
C237     C     0.11364     0.45682     0.46012     -0.019622
C238     C     0.88636     0.54318     0.53988     -0.019622
C239     C     0.34318     0.88636     0.46012     -0.019623
C240     C     0.65682     0.11364     0.53988     -0.019622
C241     C     0.40336     0.45941     0.04496     -0.128336
C242     C     0.59664     0.54059     0.95504     -0.128336
C243     C     0.54059     0.94395     0.04496     -0.128335
C244     C     0.45941     0.05605     0.95504     -0.128335
C245     C     0.05605     0.59664     0.04496     -0.128335
C246     C     0.94395     0.40336     0.95504     -0.128337
C247     C     0.59664     0.54059     0.04496     -0.128336
C248     C     0.40336     0.45941     0.95504     -0.128336
C249     C     0.45941     0.05605     0.04496     -0.128335
C250     C     0.54059     0.94395     0.95504     -0.128335
C251     C     0.94395     0.40336     0.04496     -0.128337
C252     C     0.05605     0.59664     0.95504     -0.128335
C253     C     0.45941     0.40336     0.45504     -0.128337
C254     C     0.54059     0.59664     0.54496     -0.128335
C255     C     0.94395     0.54059     0.45504     -0.128336
C256     C     0.05605     0.45941     0.54496     -0.128336
C257     C     0.59664     0.05605     0.45504     -0.128335
C258     C     0.40336     0.94395     0.54496     -0.128335
C259     C     0.54059     0.59664     0.45504     -0.128335
C260     C     0.45941     0.40336     0.54496     -0.128337
C261     C     0.05605     0.45941     0.45504     -0.128336
C262     C     0.94395     0.54059     0.54496     -0.128336
C263     C     0.40336     0.94395     0.45504     -0.128335
C264     C     0.59664     0.05605     0.54496     -0.128335
C265     C     0.40656     0.41085     0.06494     -0.072449
C266     C     0.59344     0.58915     0.93506     -0.072449
C267     C     0.58915     0.99571     0.06494     -0.072451
C268     C     0.41085     0.00429     0.93506     -0.07245
C269     C     0.00429     0.59344     0.06494     -0.072449
C270     C     0.99571     0.40656     0.93506     -0.072448
C271     C     0.59344     0.58915     0.06494     -0.072449
C272     C     0.40656     0.41085     0.93506     -0.072449
C273     C     0.41085     0.00429     0.06494     -0.07245
C274     C     0.58915     0.99571     0.93506     -0.072451
C275     C     0.99571     0.40656     0.06494     -0.072448
C276     C     0.00429     0.59344     0.93506     -0.072449
C277     C     0.41085     0.40656     0.43506     -0.072448
C278     C     0.58915     0.59344     0.56494     -0.072449
C279     C     0.99571     0.58915     0.43506     -0.072449
C280     C     0.00429     0.41085     0.56494     -0.072449
C281     C     0.59344     0.00429     0.43506     -0.07245
C282     C     0.40656     0.99571     0.56494     -0.072451
C283     C     0.58915     0.59344     0.43506     -0.072449
C284     C     0.41085     0.40656     0.56494     -0.072448
C285     C     0.00429     0.41085     0.43506     -0.072449
C286     C     0.99571     0.58915     0.56494     -0.072449
C287     C     0.40656     0.99571     0.43506     -0.072451
C288     C     0.59344     0.00429     0.56494     -0.07245
C289     C     0.34944     0.35924     0.08043     -0.070246
C290     C     0.65056     0.64076     0.91957     -0.070247
C291     C     0.64076     0.99020     0.08043     -0.070248
C292     C     0.35924     0.00980     0.91957     -0.070248
C293     C     0.00980     0.65056     0.08043     -0.070246
C294     C     0.99020     0.34944     0.91957     -0.070247
C295     C     0.65056     0.64076     0.08043     -0.070247
C296     C     0.34944     0.35924     0.91957     -0.070246
C297     C     0.35924     0.00980     0.08043     -0.070248
C298     C     0.64076     0.99020     0.91957     -0.070248
C299     C     0.99020     0.34944     0.08043     -0.070247
C300     C     0.00980     0.65056     0.91957     -0.070246
C301     C     0.35924     0.34944     0.41957     -0.070247
C302     C     0.64076     0.65056     0.58043     -0.070246
C303     C     0.99020     0.64076     0.41957     -0.070247
C304     C     0.00980     0.35924     0.58043     -0.070246
C305     C     0.65056     0.00980     0.41957     -0.070248
C306     C     0.34944     0.99020     0.58043     -0.070248
C307     C     0.64076     0.65056     0.41957     -0.070246
C308     C     0.35924     0.34944     0.58043     -0.070247
C309     C     0.00980     0.35924     0.41957     -0.070246
C310     C     0.99020     0.64076     0.58043     -0.070247
C311     C     0.34944     0.99020     0.41957     -0.070248
C312     C     0.65056     0.00980     0.58043     -0.070248
C313     C     0.33561     0.60878     0.01906     -0.067017
C314     C     0.66439     0.39122     0.98094     -0.067017
C315     C     0.39122     0.72683     0.01906     -0.067016
C316     C     0.60878     0.27317     0.98094     -0.067017
C317     C     0.27317     0.66439     0.01906     -0.067016
C318     C     0.72683     0.33561     0.98094     -0.067016
C319     C     0.66439     0.39122     0.01906     -0.067017
C320     C     0.33561     0.60878     0.98094     -0.067017
C321     C     0.60878     0.27317     0.01906     -0.067017
C322     C     0.39122     0.72683     0.98094     -0.067016
C323     C     0.72683     0.33561     0.01906     -0.067016
C324     C     0.27317     0.66439     0.98094     -0.067016
C325     C     0.60878     0.33561     0.48094     -0.067017
C326     C     0.39122     0.66439     0.51906     -0.067017
C327     C     0.72683     0.39122     0.48094     -0.067016
C328     C     0.27317     0.60878     0.51906     -0.067016
C329     C     0.66439     0.27317     0.48094     -0.067017
C330     C     0.33561     0.72683     0.51906     -0.067015
C331     C     0.39122     0.66439     0.48094     -0.067017
C332     C     0.60878     0.33561     0.51906     -0.067017
C333     C     0.27317     0.60878     0.48094     -0.067016
C334     C     0.72683     0.39122     0.51906     -0.067016
C335     C     0.33561     0.72683     0.48094     -0.067015
C336     C     0.66439     0.27317     0.51906     -0.067017
C337     C     0.34031     0.50861     0.01911     -0.027133
C338     C     0.65969     0.49139     0.98089     -0.027133
C339     C     0.49139     0.83170     0.01911     -0.027132
C340     C     0.50861     0.16830     0.98089     -0.027132
C341     C     0.16830     0.65969     0.01911     -0.027133
C342     C     0.83170     0.34031     0.98089     -0.027132
C343     C     0.65969     0.49139     0.01911     -0.027133
C344     C     0.34031     0.50861     0.98089     -0.027133
C345     C     0.50861     0.16830     0.01911     -0.027132
C346     C     0.49139     0.83170     0.98089     -0.027132
C347     C     0.83170     0.34031     0.01911     -0.027132
C348     C     0.16830     0.65969     0.98089     -0.027133
C349     C     0.50861     0.34031     0.48089     -0.027133
C350     C     0.49139     0.65969     0.51911     -0.027133
C351     C     0.83170     0.49139     0.48089     -0.027133
C352     C     0.16830     0.50861     0.51911     -0.027133
C353     C     0.65969     0.16830     0.48089     -0.027132
C354     C     0.34031     0.83170     0.51911     -0.027132
C355     C     0.49139     0.65969     0.48089     -0.027133
C356     C     0.50861     0.34031     0.51911     -0.027133
C357     C     0.16830     0.50861     0.48089     -0.027133
C358     C     0.83170     0.49139     0.51911     -0.027133
C359     C     0.34031     0.83170     0.48089     -0.027132
C360     C     0.65969     0.16830     0.51911     -0.027132
C361     C     0.40736     0.05772     0.18748     -0.120955
C362     C     0.59264     0.94228     0.81252     -0.120954
C363     C     0.94228     0.34964     0.18748     -0.120955
C364     C     0.05772     0.65036     0.81252     -0.120954
C365     C     0.65036     0.59264     0.18748     -0.120955
C366     C     0.34964     0.40736     0.81252     -0.120954
C367     C     0.59264     0.94228     0.18748     -0.120954
C368     C     0.40736     0.05772     0.81252     -0.120955
C369     C     0.05772     0.65036     0.18748     -0.120955
C370     C     0.94228     0.34964     0.81252     -0.120955
C371     C     0.34964     0.40736     0.18748     -0.120954
C372     C     0.65036     0.59264     0.81252     -0.120954
C373     C     0.05772     0.40736     0.31252     -0.120954
C374     C     0.94228     0.59264     0.68748     -0.120955
C375     C     0.34964     0.94228     0.31252     -0.120954
C376     C     0.65036     0.05772     0.68748     -0.120955
C377     C     0.59264     0.65036     0.31252     -0.120954
C378     C     0.40736     0.34964     0.68748     -0.120955
C379     C     0.94228     0.59264     0.31252     -0.120954
C380     C     0.05772     0.40736     0.68748     -0.120954
C381     C     0.65036     0.05772     0.31252     -0.120955
C382     C     0.34964     0.94228     0.68748     -0.120954
C383     C     0.40736     0.34964     0.31252     -0.120955
C384     C     0.59264     0.65036     0.68748     -0.120955
C385     C     0.42113     0.01850     0.20998     -0.114727
C386     C     0.57887     0.98150     0.79002     -0.114728
C387     C     0.98150     0.40263     0.20998     -0.114727
C388     C     0.01850     0.59737     0.79002     -0.114727
C389     C     0.59737     0.57887     0.20998     -0.114728
C390     C     0.40263     0.42113     0.79002     -0.114727
C391     C     0.57887     0.98150     0.20998     -0.114728
C392     C     0.42113     0.01850     0.79002     -0.114727
C393     C     0.01850     0.59737     0.20998     -0.114727
C394     C     0.98150     0.40263     0.79002     -0.114727
C395     C     0.40263     0.42113     0.20998     -0.114726
C396     C     0.59737     0.57887     0.79002     -0.114729
C397     C     0.01850     0.42113     0.29002     -0.114727
C398     C     0.98150     0.57887     0.70998     -0.114728
C399     C     0.40263     0.98150     0.29002     -0.114728
C400     C     0.59737     0.01850     0.70998     -0.114727
C401     C     0.57887     0.59737     0.29002     -0.114727
C402     C     0.42113     0.40263     0.70998     -0.114727
C403     C     0.98150     0.57887     0.29002     -0.114729
C404     C     0.01850     0.42113     0.70998     -0.114726
C405     C     0.59737     0.01850     0.29002     -0.114727
C406     C     0.40263     0.98150     0.70998     -0.114728
C407     C     0.42113     0.40263     0.29002     -0.114727
C408     C     0.57887     0.59737     0.70998     -0.114727
C409     C     0.48474     0.04209     0.22411     -0.066851
C410     C     0.51526     0.95791     0.77589     -0.06685
C411     C     0.95791     0.44265     0.22411     -0.06685
C412     C     0.04209     0.55735     0.77589     -0.06685
C413     C     0.55735     0.51526     0.22411     -0.066849
C414     C     0.44265     0.48474     0.77589     -0.066849
C415     C     0.51526     0.95791     0.22411     -0.06685
C416     C     0.48474     0.04209     0.77589     -0.066851
C417     C     0.04209     0.55735     0.22411     -0.06685
C418     C     0.95791     0.44265     0.77589     -0.06685
C419     C     0.44265     0.48474     0.22411     -0.066849
C420     C     0.55735     0.51526     0.77589     -0.066849
C421     C     0.04209     0.48474     0.27589     -0.066849
C422     C     0.95791     0.51526     0.72411     -0.066849
C423     C     0.44265     0.95791     0.27589     -0.06685
C424     C     0.55735     0.04209     0.72411     -0.066851
C425     C     0.51526     0.55735     0.27589     -0.06685
C426     C     0.48474     0.44265     0.72411     -0.06685
C427     C     0.95791     0.51526     0.27589     -0.066849
C428     C     0.04209     0.48474     0.72411     -0.06685
C429     C     0.55735     0.04209     0.27589     -0.066851
C430     C     0.44265     0.95791     0.72411     -0.06685
C431     C     0.48474     0.44265     0.27589     -0.06685
C432     C     0.51526     0.55735     0.72411     -0.06685
C433     C     0.53554     0.10221     0.21061     -0.110682
C434     C     0.46446     0.89779     0.78939     -0.110683
C435     C     0.89779     0.43333     0.21061     -0.110682
C436     C     0.10221     0.56667     0.78939     -0.110684
C437     C     0.56667     0.46446     0.21061     -0.110682
C438     C     0.43333     0.53554     0.78939     -0.110684
C439     C     0.46446     0.89779     0.21061     -0.110682
C440     C     0.53554     0.10221     0.78939     -0.110682
C441     C     0.10221     0.56667     0.21061     -0.110683
C442     C     0.89779     0.43333     0.78939     -0.110683
C443     C     0.43333     0.53554     0.21061     -0.110684
C444     C     0.56667     0.46446     0.78939     -0.110683
C445     C     0.10221     0.53554     0.28939     -0.110684
C446     C     0.89779     0.46446     0.71061     -0.110682
C447     C     0.43333     0.89779     0.28939     -0.110683
C448     C     0.56667     0.10221     0.71061     -0.110682
C449     C     0.46446     0.56667     0.28939     -0.110684
C450     C     0.53554     0.43333     0.71061     -0.110682
C451     C     0.89779     0.46446     0.28939     -0.110683
C452     C     0.10221     0.53554     0.71061     -0.110684
C453     C     0.56667     0.10221     0.28939     -0.110682
C454     C     0.43333     0.89779     0.71061     -0.110682
C455     C     0.53554     0.43333     0.28939     -0.110683
C456     C     0.46446     0.56667     0.71061     -0.110683
C457     C     0.52170     0.14194     0.18877     -0.126625
C458     C     0.47830     0.85806     0.81123     -0.126626
C459     C     0.85806     0.37976     0.18877     -0.126624
C460     C     0.14194     0.62024     0.81123     -0.126624
C461     C     0.62024     0.47830     0.18877     -0.126623
C462     C     0.37976     0.52170     0.81123     -0.126624
C463     C     0.47830     0.85806     0.18877     -0.126626
C464     C     0.52170     0.14194     0.81123     -0.126625
C465     C     0.14194     0.62024     0.18877     -0.126624
C466     C     0.85806     0.37976     0.81123     -0.126624
C467     C     0.37976     0.52170     0.18877     -0.126625
C468     C     0.62024     0.47830     0.81123     -0.126623
C469     C     0.14194     0.52170     0.31123     -0.126624
C470     C     0.85806     0.47830     0.68877     -0.126623
C471     C     0.37976     0.85806     0.31123     -0.126626
C472     C     0.62024     0.14194     0.68877     -0.126625
C473     C     0.47830     0.62024     0.31123     -0.126624
C474     C     0.52170     0.37976     0.68877     -0.126624
C475     C     0.85806     0.47830     0.31123     -0.126623
C476     C     0.14194     0.52170     0.68877     -0.126625
C477     C     0.62024     0.14194     0.31123     -0.126625
C478     C     0.37976     0.85806     0.68877     -0.126626
C479     C     0.52170     0.37976     0.31123     -0.126624
C480     C     0.47830     0.62024     0.68877     -0.126624
C481     C     0.45707     0.12104     0.17774     -0.020809
C482     C     0.54293     0.87896     0.82226     -0.020809
C483     C     0.87896     0.33603     0.17774     -0.020809
C484     C     0.12104     0.66397     0.82226     -0.020809
C485     C     0.66397     0.54293     0.17774     -0.02081
C486     C     0.33603     0.45707     0.82226     -0.020808
C487     C     0.54293     0.87896     0.17774     -0.020808
C488     C     0.45707     0.12104     0.82226     -0.02081
C489     C     0.12104     0.66397     0.17774     -0.020809
C490     C     0.87896     0.33603     0.82226     -0.020809
C491     C     0.33603     0.45707     0.17774     -0.020808
C492     C     0.66397     0.54293     0.82226     -0.02081
C493     C     0.12104     0.45707     0.32226     -0.020808
C494     C     0.87896     0.54293     0.67774     -0.02081
C495     C     0.33603     0.87896     0.32226     -0.020809
C496     C     0.66397     0.12104     0.67774     -0.020809
C497     C     0.54293     0.66397     0.32226     -0.020809
C498     C     0.45707     0.33603     0.67774     -0.020809
C499     C     0.87896     0.54293     0.32226     -0.02081
C500     C     0.12104     0.45707     0.67774     -0.020808
C501     C     0.66397     0.12104     0.32226     -0.02081
C502     C     0.33603     0.87896     0.67774     -0.020808
C503     C     0.45707     0.33603     0.32226     -0.020809
C504     C     0.54293     0.66397     0.67774     -0.020808
C505     C     0.44084     0.66184     0.53802     -0.098237
C506     C     0.55916     0.33816     0.46198     -0.098237
C507     C     0.33816     0.77900     0.53802     -0.098238
C508     C     0.66184     0.22100     0.46198     -0.098237
C509     C     0.22100     0.55916     0.53802     -0.098237
C510     C     0.77900     0.44084     0.46198     -0.098237
C511     C     0.55916     0.33816     0.53802     -0.098237
C512     C     0.44084     0.66184     0.46198     -0.098237
C513     C     0.66184     0.22100     0.53802     -0.098237
C514     C     0.33816     0.77900     0.46198     -0.098238
C515     C     0.77900     0.44084     0.53802     -0.098237
C516     C     0.22100     0.55916     0.46198     -0.098237
C517     C     0.66184     0.44084     0.96198     -0.098237
C518     C     0.33816     0.55916     0.03802     -0.098237
C519     C     0.77900     0.33816     0.96198     -0.098237
C520     C     0.22100     0.66184     0.03802     -0.098237
C521     C     0.55916     0.22100     0.96198     -0.098237
C522     C     0.44084     0.77900     0.03802     -0.098238
C523     C     0.33816     0.55916     0.96198     -0.098237
C524     C     0.66184     0.44084     0.03802     -0.098237
C525     C     0.22100     0.66184     0.96198     -0.098237
C526     C     0.77900     0.33816     0.03802     -0.098237
C527     C     0.44084     0.77900     0.96198     -0.098238
C528     C     0.55916     0.22100     0.03802     -0.098237
C529     C     0.00000     0.50000     0.25000     0.119929
C530     C     0.00000     0.50000     0.75000     0.119929
C531     C     0.50000     0.50000     0.25000     0.119929
C532     C     0.50000     0.50000     0.75000     0.119929
C533     C     0.50000     0.00000     0.25000     0.119926
C534     C     0.50000     0.00000     0.75000     0.119926
C535     C     0.33333     0.66667     0.53597     0.017337
C536     C     0.66667     0.33333     0.46403     0.017337
C537     C     0.66667     0.33333     0.53597     0.017337
C538     C     0.33333     0.66667     0.46403     0.017337
C539     C     0.66667     0.33333     0.96403     0.017337
C540     C     0.33333     0.66667     0.03597     0.017337
C541     C     0.33333     0.66667     0.96403     0.017337
C542     C     0.66667     0.33333     0.03597     0.017337
N1     N     0.40536     0.30401     0.10254     -0.192113
N2     N     0.59464     0.69599     0.89746     -0.192108
N3     N     0.69599     0.10135     0.10254     -0.192109
N4     N     0.30401     0.89865     0.89746     -0.192109
N5     N     0.89865     0.59464     0.10254     -0.192107
N6     N     0.10135     0.40536     0.89746     -0.19211
N7     N     0.59464     0.69599     0.10254     -0.192108
N8     N     0.40536     0.30401     0.89746     -0.192113
N9     N     0.30401     0.89865     0.10254     -0.192109
N10     N     0.69599     0.10135     0.89746     -0.192109
N11     N     0.10135     0.40536     0.10254     -0.19211
N12     N     0.89865     0.59464     0.89746     -0.192107
N13     N     0.30401     0.40536     0.39746     -0.19211
N14     N     0.69599     0.59464     0.60254     -0.192107
N15     N     0.10135     0.69599     0.39746     -0.192108
N16     N     0.89865     0.30401     0.60254     -0.192113
N17     N     0.59464     0.89865     0.39746     -0.192109
N18     N     0.40536     0.10135     0.60254     -0.192109
N19     N     0.69599     0.59464     0.39746     -0.192107
N20     N     0.30401     0.40536     0.60254     -0.19211
N21     N     0.89865     0.30401     0.39746     -0.192113
N22     N     0.10135     0.69599     0.60254     -0.192108
N23     N     0.40536     0.10135     0.39746     -0.192109
N24     N     0.59464     0.89865     0.60254     -0.192109
F1     F     0.53303     0.21328     0.12742     -0.005324
F2     F     0.46697     0.78672     0.87258     -0.005323
F3     F     0.78672     0.31975     0.12742     -0.005322
F4     F     0.21328     0.68025     0.87258     -0.005327
F5     F     0.68025     0.46697     0.12742     -0.00533
F6     F     0.31975     0.53303     0.87258     -0.005325
F7     F     0.46697     0.78672     0.12742     -0.005323
F8     F     0.53303     0.21328     0.87258     -0.005324
F9     F     0.21328     0.68025     0.12742     -0.005327
F10     F     0.78672     0.31975     0.87258     -0.005322
F11     F     0.31975     0.53303     0.12742     -0.005325
F12     F     0.68025     0.46697     0.87258     -0.00533
F13     F     0.21328     0.53303     0.37258     -0.005325
F14     F     0.78672     0.46697     0.62742     -0.00533
F15     F     0.31975     0.78672     0.37258     -0.005323
F16     F     0.68025     0.21328     0.62742     -0.005324
F17     F     0.46697     0.68025     0.37258     -0.005327
F18     F     0.53303     0.31975     0.62742     -0.005322
F19     F     0.78672     0.46697     0.37258     -0.00533
F20     F     0.21328     0.53303     0.62742     -0.005325
F21     F     0.68025     0.21328     0.37258     -0.005324
F22     F     0.31975     0.78672     0.62742     -0.005323
F23     F     0.53303     0.31975     0.37258     -0.005322
F24     F     0.46697     0.68025     0.62742     -0.005327
