#======================================================================

# CRYSTAL DATA

#----------------------------------------------------------------------

data_VESTA_phase_1


_chemical_name_common                  ''
_cell_length_a                         48.81790
_cell_length_b                         110.72940
_cell_length_c                         37.21920
_cell_angle_alpha                      90
_cell_angle_beta                       90
_cell_angle_gamma                      90
_space_group_name_H-M_alt              'P 1'
_space_group_IT_number                 1

loop_
_space_group_symop_operation_xyz
   'x, y, z'

loop_
_atom_site_label
_atom_site_type_symbol
_atom_site_fract_x
_atom_site_fract_y
_atom_site_fract_z
_atom_site_charge
C1     C     0.23229     0.63719     0.01905     -0.067748
C2     C     0.76771     0.36281     0.98095     -0.067748
C3     C     0.76771     0.36281     0.01905     -0.067748
C4     C     0.23229     0.63719     0.98095     -0.067748
C5     C     0.26771     0.13719     0.98095     -0.067748
C6     C     0.73229     0.86281     0.01905     -0.067748
C7     C     0.73229     0.86281     0.98095     -0.067748
C8     C     0.26771     0.13719     0.01905     -0.067748
C9     C     0.73229     0.13719     0.51905     -0.067748
C10     C     0.26771     0.86281     0.48095     -0.067748
C11     C     0.26771     0.86281     0.51905     -0.067748
C12     C     0.73229     0.13719     0.48095     -0.067748
C13     C     0.76771     0.63719     0.48095     -0.067748
C14     C     0.23229     0.36281     0.51905     -0.067748
C15     C     0.23229     0.36281     0.48095     -0.067748
C16     C     0.76771     0.63719     0.51905     -0.067748
C17     C     0.28010     0.64299     0.01909     -0.031183
C18     C     0.71990     0.35701     0.98091     -0.031183
C19     C     0.71990     0.35701     0.01909     -0.031183
C20     C     0.28010     0.64299     0.98091     -0.031183
C21     C     0.21990     0.14299     0.98091     -0.031183
C22     C     0.78010     0.85701     0.01909     -0.031183
C23     C     0.78010     0.85701     0.98091     -0.031183
C24     C     0.21990     0.14299     0.01909     -0.031183
C25     C     0.78010     0.14299     0.51909     -0.031183
C26     C     0.21990     0.85701     0.48091     -0.031183
C27     C     0.21990     0.85701     0.51909     -0.031183
C28     C     0.78010     0.14299     0.48091     -0.031183
C29     C     0.71990     0.64299     0.48091     -0.031183
C30     C     0.28010     0.35701     0.51909     -0.031183
C31     C     0.28010     0.35701     0.48091     -0.031183
C32     C     0.71990     0.64299     0.51909     -0.031183
C33     C     0.25613     0.63992     0.03797     -0.104017
C34     C     0.74387     0.36008     0.96203     -0.104017
C35     C     0.74387     0.36008     0.03797     -0.104017
C36     C     0.25613     0.63992     0.96203     -0.104017
C37     C     0.24387     0.13992     0.96203     -0.104017
C38     C     0.75613     0.86008     0.03797     -0.104017
C39     C     0.75613     0.86008     0.96203     -0.104017
C40     C     0.24387     0.13992     0.03797     -0.104017
C41     C     0.75613     0.13992     0.53797     -0.104017
C42     C     0.24387     0.86008     0.46203     -0.104017
C43     C     0.24387     0.86008     0.53797     -0.104017
C44     C     0.75613     0.13992     0.46203     -0.104017
C45     C     0.74387     0.63992     0.46203     -0.104017
C46     C     0.25613     0.36008     0.53797     -0.104017
C47     C     0.25613     0.36008     0.46203     -0.104017
C48     C     0.74387     0.63992     0.53797     -0.104017
C49     C     0.30324     0.64813     0.03951     -0.019918
C50     C     0.69676     0.35187     0.96049     -0.019918
C51     C     0.69676     0.35187     0.03951     -0.019918
C52     C     0.30324     0.64813     0.96049     -0.019918
C53     C     0.19676     0.14813     0.96049     -0.019918
C54     C     0.80324     0.85187     0.03951     -0.019918
C55     C     0.80324     0.85187     0.96049     -0.019918
C56     C     0.19676     0.14813     0.03951     -0.019918
C57     C     0.80324     0.14813     0.53951     -0.019918
C58     C     0.19676     0.85187     0.46049     -0.019918
C59     C     0.19676     0.85187     0.53951     -0.019918
C60     C     0.80324     0.14813     0.46049     -0.019918
C61     C     0.69676     0.64813     0.46049     -0.019918
C62     C     0.30324     0.35187     0.53951     -0.019918
C63     C     0.30324     0.35187     0.46049     -0.019918
C64     C     0.69676     0.64813     0.53951     -0.019918
C65     C     0.34717     0.65845     0.07769     -0.065277
C66     C     0.65283     0.34155     0.92231     -0.065277
C67     C     0.65283     0.34155     0.07769     -0.065277
C68     C     0.34717     0.65845     0.92231     -0.065277
C69     C     0.15283     0.15845     0.92231     -0.065277
C70     C     0.84717     0.84155     0.07769     -0.065277
C71     C     0.84717     0.84155     0.92231     -0.065277
C72     C     0.15283     0.15845     0.07769     -0.065277
C73     C     0.84717     0.15845     0.57769     -0.065277
C74     C     0.15283     0.84155     0.42231     -0.065277
C75     C     0.15283     0.84155     0.57769     -0.065277
C76     C     0.84717     0.15845     0.42231     -0.065277
C77     C     0.65283     0.65845     0.42231     -0.065277
C78     C     0.34717     0.34155     0.57769     -0.065277
C79     C     0.34717     0.34155     0.42231     -0.065277
C80     C     0.65283     0.65845     0.57769     -0.065277
C81     C     0.37034     0.66381     0.09768     0.012839
C82     C     0.62966     0.33619     0.90232     0.012839
C83     C     0.62966     0.33619     0.09768     0.012839
C84     C     0.37034     0.66381     0.90232     0.012839
C85     C     0.12966     0.16381     0.90232     0.012839
C86     C     0.87034     0.83619     0.09768     0.012839
C87     C     0.87034     0.83619     0.90232     0.012839
C88     C     0.12966     0.16381     0.09768     0.012839
C89     C     0.87034     0.16381     0.59768     0.012839
C90     C     0.12966     0.83619     0.40232     0.012839
C91     C     0.12966     0.83619     0.59768     0.012839
C92     C     0.87034     0.16381     0.40232     0.012839
C93     C     0.62966     0.66381     0.40232     0.012839
C94     C     0.37034     0.33619     0.59768     0.012839
C95     C     0.37034     0.33619     0.40232     0.012839
C96     C     0.62966     0.66381     0.59768     0.012839
C97     C     0.48025     0.71873     0.23002     -0.062838
C98     C     0.51975     0.28127     0.76998     -0.062838
C99     C     0.51975     0.28127     0.23002     -0.062838
C100     C     0.48025     0.71873     0.76998     -0.062838
C101     C     0.01975     0.21873     0.76998     -0.062838
C102     C     0.98025     0.78127     0.23002     -0.062838
C103     C     0.98025     0.78127     0.76998     -0.062838
C104     C     0.01975     0.21873     0.23002     -0.062838
C105     C     0.98025     0.21873     0.73002     -0.062838
C106     C     0.01975     0.78127     0.26998     -0.062838
C107     C     0.01975     0.78127     0.73002     -0.062838
C108     C     0.98025     0.21873     0.26998     -0.062838
C109     C     0.51975     0.71873     0.26998     -0.062838
C110     C     0.48025     0.28127     0.73002     -0.062838
C111     C     0.48025     0.28127     0.26998     -0.062838
C112     C     0.51975     0.71873     0.73002     -0.062838
C113     C     0.01741     0.50871     0.22692     -0.063475
C114     C     0.98259     0.49129     0.77308     -0.063475
C115     C     0.98259     0.49129     0.22692     -0.063475
C116     C     0.01741     0.50871     0.77308     -0.063475
C117     C     0.48259     0.00871     0.77308     -0.063475
C118     C     0.51741     0.99129     0.22692     -0.063475
C119     C     0.51741     0.99129     0.77308     -0.063475
C120     C     0.48259     0.00871     0.22692     -0.063475
C121     C     0.51741     0.00871     0.72692     -0.063475
C122     C     0.48259     0.99129     0.27308     -0.063475
C123     C     0.48259     0.99129     0.72692     -0.063475
C124     C     0.51741     0.00871     0.27308     -0.063475
C125     C     0.98259     0.50871     0.27308     -0.063475
C126     C     0.01741     0.49129     0.72692     -0.063475
C127     C     0.01741     0.49129     0.27308     -0.063475
C128     C     0.98259     0.50871     0.72692     -0.063475
C129     C     0.04670     0.52646     0.18748     -0.039555
C130     C     0.95330     0.47354     0.81252     -0.039555
C131     C     0.95330     0.47354     0.18748     -0.039555
C132     C     0.04670     0.52646     0.81252     -0.039555
C133     C     0.45330     0.02646     0.81252     -0.039555
C134     C     0.54670     0.97354     0.18748     -0.039555
C135     C     0.54670     0.97354     0.81252     -0.039555
C136     C     0.45330     0.02646     0.18748     -0.039555
C137     C     0.54670     0.02646     0.68748     -0.039555
C138     C     0.45330     0.97354     0.31252     -0.039555
C139     C     0.45330     0.97354     0.68748     -0.039555
C140     C     0.54670     0.02646     0.31252     -0.039555
C141     C     0.95330     0.52646     0.31252     -0.039555
C142     C     0.04670     0.47354     0.68748     -0.039555
C143     C     0.04670     0.47354     0.31252     -0.039555
C144     C     0.95330     0.52646     0.68748     -0.039555
C145     C     0.06181     0.53580     0.16687     -0.067382
C146     C     0.93819     0.46420     0.83313     -0.067382
C147     C     0.93819     0.46420     0.16687     -0.067382
C148     C     0.06181     0.53580     0.83313     -0.067382
C149     C     0.43819     0.03580     0.83313     -0.067382
C150     C     0.56181     0.96420     0.16687     -0.067382
C151     C     0.56181     0.96420     0.83313     -0.067382
C152     C     0.43819     0.03580     0.16687     -0.067382
C153     C     0.56181     0.03580     0.66687     -0.067382
C154     C     0.43819     0.96420     0.33313     -0.067382
C155     C     0.43819     0.96420     0.66687     -0.067382
C156     C     0.56181     0.03580     0.33313     -0.067382
C157     C     0.93819     0.53580     0.33313     -0.067382
C158     C     0.06181     0.46420     0.66687     -0.067382
C159     C     0.06181     0.46420     0.33313     -0.067382
C160     C     0.93819     0.53580     0.66687     -0.067382
C161     C     0.09740     0.57357     0.10067     0.005678
C162     C     0.90260     0.42643     0.89933     0.005678
C163     C     0.90260     0.42643     0.10067     0.005678
C164     C     0.09740     0.57357     0.89933     0.005678
C165     C     0.40260     0.07357     0.89933     0.005678
C166     C     0.59740     0.92643     0.10067     0.005678
C167     C     0.59740     0.92643     0.89933     0.005678
C168     C     0.40260     0.07357     0.10067     0.005678
C169     C     0.59740     0.07357     0.60067     0.005678
C170     C     0.40260     0.92643     0.39933     0.005678
C171     C     0.40260     0.92643     0.60067     0.005678
C172     C     0.59740     0.07357     0.39933     0.005678
C173     C     0.90260     0.57357     0.39933     0.005678
C174     C     0.09740     0.42643     0.60067     0.005678
C175     C     0.09740     0.42643     0.39933     0.005678
C176     C     0.90260     0.57357     0.60067     0.005678
C177     C     0.11472     0.58187     0.07949     -0.065295
C178     C     0.88528     0.41813     0.92051     -0.065295
C179     C     0.88528     0.41813     0.07949     -0.065295
C180     C     0.11472     0.58187     0.92051     -0.065295
C181     C     0.38528     0.08187     0.92051     -0.065295
C182     C     0.61472     0.91813     0.07949     -0.065295
C183     C     0.61472     0.91813     0.92051     -0.065295
C184     C     0.38528     0.08187     0.07949     -0.065295
C185     C     0.61472     0.08187     0.57949     -0.065295
C186     C     0.38528     0.91813     0.42051     -0.065295
C187     C     0.38528     0.91813     0.57949     -0.065295
C188     C     0.61472     0.08187     0.42051     -0.065295
C189     C     0.88528     0.58187     0.42051     -0.065295
C190     C     0.11472     0.41813     0.57949     -0.065295
C191     C     0.11472     0.41813     0.42051     -0.065295
C192     C     0.88528     0.58187     0.57949     -0.065295
C193     C     0.14689     0.59815     0.03964     -0.02085
C194     C     0.85311     0.40185     0.96036     -0.02085
C195     C     0.85311     0.40185     0.03964     -0.02085
C196     C     0.14689     0.59815     0.96036     -0.02085
C197     C     0.35311     0.09815     0.96036     -0.02085
C198     C     0.64689     0.90185     0.03964     -0.02085
C199     C     0.64689     0.90185     0.96036     -0.02085
C200     C     0.35311     0.09815     0.03964     -0.02085
C201     C     0.64689     0.09815     0.53964     -0.02085
C202     C     0.35311     0.90185     0.46036     -0.02085
C203     C     0.35311     0.90185     0.53964     -0.02085
C204     C     0.64689     0.09815     0.46036     -0.02085
C205     C     0.85311     0.59815     0.46036     -0.02085
C206     C     0.14689     0.40185     0.53964     -0.02085
C207     C     0.14689     0.40185     0.46036     -0.02085
C208     C     0.85311     0.59815     0.53964     -0.02085
C209     C     0.17746     0.61599     0.03798     -0.104506
C210     C     0.82254     0.38401     0.96202     -0.104506
C211     C     0.82254     0.38401     0.03798     -0.104506
C212     C     0.17746     0.61599     0.96202     -0.104506
C213     C     0.32254     0.11599     0.96202     -0.104506
C214     C     0.67746     0.88401     0.03798     -0.104506
C215     C     0.67746     0.88401     0.96202     -0.104506
C216     C     0.32254     0.11599     0.03798     -0.104506
C217     C     0.67746     0.11599     0.53798     -0.104506
C218     C     0.32254     0.88401     0.46202     -0.104506
C219     C     0.32254     0.88401     0.53798     -0.104506
C220     C     0.67746     0.11599     0.46202     -0.104506
C221     C     0.82254     0.61599     0.46202     -0.104506
C222     C     0.17746     0.38401     0.53798     -0.104506
C223     C     0.17746     0.38401     0.46202     -0.104506
C224     C     0.82254     0.61599     0.53798     -0.104506
C225     C     0.16361     0.60684     0.01908     -0.030732
C226     C     0.83639     0.39316     0.98092     -0.030732
C227     C     0.83639     0.39316     0.01908     -0.030732
C228     C     0.16361     0.60684     0.98092     -0.030732
C229     C     0.33639     0.10684     0.98092     -0.030732
C230     C     0.66361     0.89316     0.01908     -0.030732
C231     C     0.66361     0.89316     0.98092     -0.030732
C232     C     0.33639     0.10684     0.01908     -0.030732
C233     C     0.66361     0.10684     0.51908     -0.030732
C234     C     0.33639     0.89316     0.48092     -0.030732
C235     C     0.33639     0.89316     0.51908     -0.030732
C236     C     0.66361     0.10684     0.48092     -0.030732
C237     C     0.83639     0.60684     0.48092     -0.030732
C238     C     0.16361     0.39316     0.51908     -0.030732
C239     C     0.16361     0.39316     0.48092     -0.030732
C240     C     0.83639     0.60684     0.51908     -0.030732
C241     C     0.19087     0.62509     0.01902     -0.066952
C242     C     0.80913     0.37491     0.98098     -0.066952
C243     C     0.80913     0.37491     0.01902     -0.066952
C244     C     0.19087     0.62509     0.98098     -0.066952
C245     C     0.30913     0.12509     0.98098     -0.066952
C246     C     0.69087     0.87491     0.01902     -0.066952
C247     C     0.69087     0.87491     0.98098     -0.066952
C248     C     0.30913     0.12509     0.01902     -0.066952
C249     C     0.69087     0.12509     0.51902     -0.066952
C250     C     0.30913     0.87491     0.48098     -0.066952
C251     C     0.30913     0.87491     0.51902     -0.066952
C252     C     0.69087     0.12509     0.48098     -0.066952
C253     C     0.80913     0.62509     0.48098     -0.066952
C254     C     0.19087     0.37491     0.51902     -0.066952
C255     C     0.19087     0.37491     0.48098     -0.066952
C256     C     0.80913     0.62509     0.51902     -0.066952
C257     C     0.18819     0.64683     0.01906     -0.069971
C258     C     0.81181     0.35317     0.98094     -0.069971
C259     C     0.81181     0.35317     0.01906     -0.069971
C260     C     0.18819     0.64683     0.98094     -0.069971
C261     C     0.31181     0.14683     0.98094     -0.069971
C262     C     0.68819     0.85317     0.01906     -0.069971
C263     C     0.68819     0.85317     0.98094     -0.069971
C264     C     0.31181     0.14683     0.01906     -0.069971
C265     C     0.68819     0.14683     0.51906     -0.069971
C266     C     0.31181     0.85317     0.48094     -0.069971
C267     C     0.31181     0.85317     0.51906     -0.069971
C268     C     0.68819     0.14683     0.48094     -0.069971
C269     C     0.81181     0.64683     0.48094     -0.069971
C270     C     0.18819     0.35317     0.51906     -0.069971
C271     C     0.18819     0.35317     0.48094     -0.069971
C272     C     0.81181     0.64683     0.51906     -0.069971
C273     C     0.17616     0.65630     0.03803     -0.10392
C274     C     0.82384     0.34370     0.96197     -0.10392
C275     C     0.82384     0.34370     0.03803     -0.10392
C276     C     0.17616     0.65630     0.96197     -0.10392
C277     C     0.32384     0.15630     0.96197     -0.10392
C278     C     0.67616     0.84370     0.03803     -0.10392
C279     C     0.67616     0.84370     0.96197     -0.10392
C280     C     0.32384     0.15630     0.03803     -0.10392
C281     C     0.67616     0.15630     0.53803     -0.10392
C282     C     0.32384     0.84370     0.46197     -0.10392
C283     C     0.32384     0.84370     0.53803     -0.10392
C284     C     0.67616     0.15630     0.46197     -0.10392
C285     C     0.82384     0.65630     0.46197     -0.10392
C286     C     0.17616     0.34370     0.53803     -0.10392
C287     C     0.17616     0.34370     0.46197     -0.10392
C288     C     0.82384     0.65630     0.53803     -0.10392
C289     C     0.16409     0.66590     0.01907     -0.029965
C290     C     0.83591     0.33410     0.98093     -0.029965
C291     C     0.83591     0.33410     0.01907     -0.029965
C292     C     0.16409     0.66590     0.98093     -0.029965
C293     C     0.33591     0.16590     0.98093     -0.029965
C294     C     0.66409     0.83410     0.01907     -0.029965
C295     C     0.66409     0.83410     0.98093     -0.029965
C296     C     0.33591     0.16590     0.01907     -0.029965
C297     C     0.66409     0.16590     0.51907     -0.029965
C298     C     0.33591     0.83410     0.48093     -0.029965
C299     C     0.33591     0.83410     0.51907     -0.029965
C300     C     0.66409     0.16590     0.48093     -0.029965
C301     C     0.83591     0.66590     0.48093     -0.029965
C302     C     0.16409     0.33410     0.51907     -0.029965
C303     C     0.16409     0.33410     0.48093     -0.029965
C304     C     0.83591     0.66590     0.51907     -0.029965
C305     C     0.15329     0.67628     0.03938     -0.022926
C306     C     0.84671     0.32372     0.96062     -0.022926
C307     C     0.84671     0.32372     0.03938     -0.022926
C308     C     0.15329     0.67628     0.96062     -0.022926
C309     C     0.34671     0.17628     0.96062     -0.022926
C310     C     0.65329     0.82372     0.03938     -0.022926
C311     C     0.65329     0.82372     0.96062     -0.022926
C312     C     0.34671     0.17628     0.03938     -0.022926
C313     C     0.65329     0.17628     0.53938     -0.022926
C314     C     0.34671     0.82372     0.46062     -0.022926
C315     C     0.34671     0.82372     0.53938     -0.022926
C316     C     0.65329     0.17628     0.46062     -0.022926
C317     C     0.84671     0.67628     0.46062     -0.022926
C318     C     0.15329     0.32372     0.53938     -0.022926
C319     C     0.15329     0.32372     0.46062     -0.022926
C320     C     0.84671     0.67628     0.53938     -0.022926
C321     C     0.13288     0.69656     0.07614     -0.062396
C322     C     0.86712     0.30344     0.92386     -0.062396
C323     C     0.86712     0.30344     0.07614     -0.062396
C324     C     0.13288     0.69656     0.92386     -0.062396
C325     C     0.36712     0.19656     0.92386     -0.062396
C326     C     0.63288     0.80344     0.07614     -0.062396
C327     C     0.63288     0.80344     0.92386     -0.062396
C328     C     0.36712     0.19656     0.07614     -0.062396
C329     C     0.63288     0.19656     0.57614     -0.062396
C330     C     0.36712     0.80344     0.42386     -0.062396
C331     C     0.36712     0.80344     0.57614     -0.062396
C332     C     0.63288     0.19656     0.42386     -0.062396
C333     C     0.86712     0.69656     0.42386     -0.062396
C334     C     0.13288     0.30344     0.57614     -0.062396
C335     C     0.13288     0.30344     0.42386     -0.062396
C336     C     0.86712     0.69656     0.57614     -0.062396
C337     C     0.12274     0.70730     0.09555     0.00579
C338     C     0.87726     0.29270     0.90445     0.00579
C339     C     0.87726     0.29270     0.09555     0.00579
C340     C     0.12274     0.70730     0.90445     0.00579
C341     C     0.37726     0.20730     0.90445     0.00579
C342     C     0.62274     0.79270     0.09555     0.00579
C343     C     0.62274     0.79270     0.90445     0.00579
C344     C     0.37726     0.20730     0.09555     0.00579
C345     C     0.62274     0.20730     0.59555     0.00579
C346     C     0.37726     0.79270     0.40445     0.00579
C347     C     0.37726     0.79270     0.59555     0.00579
C348     C     0.62274     0.20730     0.40445     0.00579
C349     C     0.87726     0.70730     0.40445     0.00579
C350     C     0.12274     0.29270     0.59555     0.00579
C351     C     0.12274     0.29270     0.40445     0.00579
C352     C     0.87726     0.70730     0.59555     0.00579
C353     C     0.08416     0.71848     0.12137     0.027206
C354     C     0.91584     0.28152     0.87863     0.027206
C355     C     0.91584     0.28152     0.12137     0.027206
C356     C     0.08416     0.71848     0.87863     0.027206
C357     C     0.41584     0.21848     0.87863     0.027206
C358     C     0.58416     0.78152     0.12137     0.027206
C359     C     0.58416     0.78152     0.87863     0.027206
C360     C     0.41584     0.21848     0.12137     0.027206
C361     C     0.58416     0.21848     0.62137     0.027206
C362     C     0.41584     0.78152     0.37863     0.027206
C363     C     0.41584     0.78152     0.62137     0.027206
C364     C     0.58416     0.21848     0.37863     0.027206
C365     C     0.91584     0.71848     0.37863     0.027206
C366     C     0.08416     0.28152     0.62137     0.027206
C367     C     0.08416     0.28152     0.37863     0.027206
C368     C     0.91584     0.71848     0.62137     0.027206
C369     C     0.05593     0.73681     0.16003     -0.071047
C370     C     0.94407     0.26319     0.83997     -0.071047
C371     C     0.94407     0.26319     0.16003     -0.071047
C372     C     0.05593     0.73681     0.83997     -0.071047
C373     C     0.44407     0.23681     0.83997     -0.071047
C374     C     0.55593     0.76319     0.16003     -0.071047
C375     C     0.55593     0.76319     0.83997     -0.071047
C376     C     0.44407     0.23681     0.16003     -0.071047
C377     C     0.55593     0.23681     0.66003     -0.071047
C378     C     0.44407     0.76319     0.33997     -0.071047
C379     C     0.44407     0.76319     0.66003     -0.071047
C380     C     0.55593     0.23681     0.33997     -0.071047
C381     C     0.94407     0.73681     0.33997     -0.071047
C382     C     0.05593     0.26319     0.66003     -0.071047
C383     C     0.05593     0.26319     0.33997     -0.071047
C384     C     0.94407     0.73681     0.66003     -0.071047
C385     C     0.04178     0.74608     0.18196     -0.037926
C386     C     0.95822     0.25392     0.81804     -0.037926
C387     C     0.95822     0.25392     0.18196     -0.037926
C388     C     0.04178     0.74608     0.81804     -0.037926
C389     C     0.45822     0.24608     0.81804     -0.037926
C390     C     0.54178     0.75392     0.18196     -0.037926
C391     C     0.54178     0.75392     0.81804     -0.037926
C392     C     0.45822     0.24608     0.18196     -0.037926
C393     C     0.54178     0.24608     0.68196     -0.037926
C394     C     0.45822     0.75392     0.31804     -0.037926
C395     C     0.45822     0.75392     0.68196     -0.037926
C396     C     0.54178     0.24608     0.31804     -0.037926
C397     C     0.95822     0.74608     0.31804     -0.037926
C398     C     0.04178     0.25392     0.68196     -0.037926
C399     C     0.04178     0.25392     0.31804     -0.037926
C400     C     0.95822     0.74608     0.68196     -0.037926
C401     C     0.01535     0.76390     0.22451     -0.068167
C402     C     0.98465     0.23610     0.77549     -0.068167
C403     C     0.98465     0.23610     0.22451     -0.068167
C404     C     0.01535     0.76390     0.77549     -0.068167
C405     C     0.48465     0.26390     0.77549     -0.068167
C406     C     0.51535     0.73610     0.22451     -0.068167
C407     C     0.51535     0.73610     0.77549     -0.068167
C408     C     0.48465     0.26390     0.22451     -0.068167
C409     C     0.51535     0.26390     0.72451     -0.068167
C410     C     0.48465     0.73610     0.27549     -0.068167
C411     C     0.48465     0.73610     0.72451     -0.068167
C412     C     0.51535     0.26390     0.27549     -0.068167
C413     C     0.98465     0.76390     0.27549     -0.068167
C414     C     0.01535     0.23610     0.72451     -0.068167
C415     C     0.01535     0.23610     0.27549     -0.068167
C416     C     0.98465     0.76390     0.72451     -0.068167
C417     C     0.20381     0.63629     0.03587     0.016102
C418     C     0.79619     0.36371     0.96413     0.016102
C419     C     0.79619     0.36371     0.03587     0.016102
C420     C     0.20381     0.63629     0.96413     0.016102
C421     C     0.29619     0.13629     0.96413     0.016102
C422     C     0.70381     0.86371     0.03587     0.016102
C423     C     0.70381     0.86371     0.96413     0.016102
C424     C     0.29619     0.13629     0.03587     0.016102
C425     C     0.70381     0.13629     0.53587     0.016102
C426     C     0.29619     0.86371     0.46413     0.016102
C427     C     0.29619     0.86371     0.53587     0.016102
C428     C     0.70381     0.13629     0.46413     0.016102
C429     C     0.79619     0.63629     0.46413     0.016102
C430     C     0.20381     0.36371     0.53587     0.016102
C431     C     0.20381     0.36371     0.46413     0.016102
C432     C     0.79619     0.63629     0.53587     0.016102
C433     C     0.39426     0.09375     0.07375     -0.109126
C434     C     0.60574     0.90625     0.92625     -0.109126
C435     C     0.60574     0.90625     0.07375     -0.109126
C436     C     0.39426     0.09375     0.92625     -0.109126
C437     C     0.10574     0.59375     0.92625     -0.109126
C438     C     0.89426     0.40625     0.07375     -0.109126
C439     C     0.89426     0.40625     0.92625     -0.109126
C440     C     0.10574     0.59375     0.07375     -0.109126
C441     C     0.89426     0.59375     0.57375     -0.109126
C442     C     0.10574     0.40625     0.42625     -0.109126
C443     C     0.10574     0.40625     0.57375     -0.109126
C444     C     0.89426     0.59375     0.42625     -0.109126
C445     C     0.60574     0.09375     0.42625     -0.109126
C446     C     0.39426     0.90625     0.57375     -0.109126
C447     C     0.39426     0.90625     0.42625     -0.109126
C448     C     0.60574     0.09375     0.57375     -0.109126
C449     C     0.37826     0.10184     0.05404     -0.129704
C450     C     0.62174     0.89816     0.94596     -0.129704
C451     C     0.62174     0.89816     0.05404     -0.129704
C452     C     0.37826     0.10184     0.94596     -0.129704
C453     C     0.12174     0.60184     0.94596     -0.129704
C454     C     0.87826     0.39816     0.05404     -0.129704
C455     C     0.87826     0.39816     0.94596     -0.129704
C456     C     0.12174     0.60184     0.05404     -0.129704
C457     C     0.87826     0.60184     0.55404     -0.129704
C458     C     0.12174     0.39816     0.44596     -0.129704
C459     C     0.12174     0.39816     0.55404     -0.129704
C460     C     0.87826     0.60184     0.44596     -0.129704
C461     C     0.62174     0.10184     0.44596     -0.129704
C462     C     0.37826     0.89816     0.55404     -0.129704
C463     C     0.37826     0.89816     0.44596     -0.129704
C464     C     0.62174     0.10184     0.55404     -0.129704
C465     C     0.34400     0.08630     0.04524     -0.128625
C466     C     0.65600     0.91370     0.95476     -0.128625
C467     C     0.65600     0.91370     0.04524     -0.128625
C468     C     0.34400     0.08630     0.95476     -0.128625
C469     C     0.15600     0.58630     0.95476     -0.128625
C470     C     0.84400     0.41370     0.04524     -0.128625
C471     C     0.84400     0.41370     0.95476     -0.128625
C472     C     0.15600     0.58630     0.04524     -0.128625
C473     C     0.84400     0.58630     0.54524     -0.128625
C474     C     0.15600     0.41370     0.45476     -0.128625
C475     C     0.15600     0.41370     0.54524     -0.128625
C476     C     0.84400     0.58630     0.45476     -0.128625
C477     C     0.65600     0.08630     0.45476     -0.128625
C478     C     0.34400     0.91370     0.54524     -0.128625
C479     C     0.34400     0.91370     0.45476     -0.128625
C480     C     0.65600     0.08630     0.54524     -0.128625
C481     C     0.35999     0.07818     0.06500     -0.082505
C482     C     0.64001     0.92182     0.93500     -0.082505
C483     C     0.64001     0.92182     0.06500     -0.082505
C484     C     0.35999     0.07818     0.93500     -0.082505
C485     C     0.14001     0.57818     0.93500     -0.082505
C486     C     0.85999     0.42182     0.06500     -0.082505
C487     C     0.85999     0.42182     0.93500     -0.082505
C488     C     0.14001     0.57818     0.06500     -0.082505
C489     C     0.85999     0.57818     0.56500     -0.082505
C490     C     0.14001     0.42182     0.43500     -0.082505
C491     C     0.14001     0.42182     0.56500     -0.082505
C492     C     0.85999     0.57818     0.43500     -0.082505
C493     C     0.64001     0.07818     0.43500     -0.082505
C494     C     0.35999     0.92182     0.56500     -0.082505
C495     C     0.35999     0.92182     0.43500     -0.082505
C496     C     0.64001     0.07818     0.56500     -0.082505
C497     C     0.15065     0.14671     0.06365     -0.108492
C498     C     0.84935     0.85329     0.93635     -0.108492
C499     C     0.84935     0.85329     0.06365     -0.108492
C500     C     0.15065     0.14671     0.93635     -0.108492
C501     C     0.34935     0.64671     0.93635     -0.108492
C502     C     0.65065     0.35329     0.06365     -0.108492
C503     C     0.65065     0.35329     0.93635     -0.108492
C504     C     0.34935     0.64671     0.06365     -0.108492
C505     C     0.65065     0.64671     0.56365     -0.108492
C506     C     0.34935     0.35329     0.43635     -0.108492
C507     C     0.34935     0.35329     0.56365     -0.108492
C508     C     0.65065     0.64671     0.43635     -0.108492
C509     C     0.84935     0.14671     0.43635     -0.108492
C510     C     0.15065     0.85329     0.56365     -0.108492
C511     C     0.15065     0.85329     0.43635     -0.108492
C512     C     0.84935     0.14671     0.56365     -0.108492
C513     C     0.17252     0.14157     0.04471     -0.12635
C514     C     0.82748     0.85843     0.95529     -0.12635
C515     C     0.82748     0.85843     0.04471     -0.12635
C516     C     0.17252     0.14157     0.95529     -0.12635
C517     C     0.32748     0.64157     0.95529     -0.12635
C518     C     0.67252     0.35843     0.04471     -0.12635
C519     C     0.67252     0.35843     0.95529     -0.12635
C520     C     0.32748     0.64157     0.04471     -0.12635
C521     C     0.67252     0.64157     0.54471     -0.12635
C522     C     0.32748     0.35843     0.45529     -0.12635
C523     C     0.32748     0.35843     0.54471     -0.12635
C524     C     0.67252     0.64157     0.45529     -0.12635
C525     C     0.82748     0.14157     0.45529     -0.12635
C526     C     0.17252     0.85843     0.54471     -0.12635
C527     C     0.17252     0.85843     0.45529     -0.12635
C528     C     0.82748     0.14157     0.54471     -0.12635
C529     C     0.19904     0.15981     0.05362     -0.132151
C530     C     0.80096     0.84019     0.94638     -0.132151
C531     C     0.80096     0.84019     0.05362     -0.132151
C532     C     0.19904     0.15981     0.94638     -0.132151
C533     C     0.30096     0.65981     0.94638     -0.132151
C534     C     0.69904     0.34019     0.05362     -0.132151
C535     C     0.69904     0.34019     0.94638     -0.132151
C536     C     0.30096     0.65981     0.05362     -0.132151
C537     C     0.69904     0.65981     0.55362     -0.132151
C538     C     0.30096     0.34019     0.44638     -0.132151
C539     C     0.30096     0.34019     0.55362     -0.132151
C540     C     0.69904     0.65981     0.44638     -0.132151
C541     C     0.80096     0.15981     0.44638     -0.132151
C542     C     0.19904     0.84019     0.55362     -0.132151
C543     C     0.19904     0.84019     0.44638     -0.132151
C544     C     0.80096     0.15981     0.55362     -0.132151
C545     C     0.17729     0.16495     0.07251     -0.082833
C546     C     0.82271     0.83505     0.92749     -0.082833
C547     C     0.82271     0.83505     0.07251     -0.082833
C548     C     0.17729     0.16495     0.92749     -0.082833
C549     C     0.32271     0.66495     0.92749     -0.082833
C550     C     0.67729     0.33505     0.07251     -0.082833
C551     C     0.67729     0.33505     0.92749     -0.082833
C552     C     0.32271     0.66495     0.07251     -0.082833
C553     C     0.67729     0.66495     0.57251     -0.082833
C554     C     0.32271     0.33505     0.42749     -0.082833
C555     C     0.32271     0.33505     0.57251     -0.082833
C556     C     0.67729     0.66495     0.42749     -0.082833
C557     C     0.82271     0.16495     0.42749     -0.082833
C558     C     0.17729     0.83505     0.57251     -0.082833
C559     C     0.17729     0.83505     0.42749     -0.082833
C560     C     0.82271     0.16495     0.57251     -0.082833
C561     C     0.01032     0.21201     0.20023     -0.124871
C562     C     0.98968     0.78799     0.79977     -0.124871
C563     C     0.98968     0.78799     0.20023     -0.124871
C564     C     0.01032     0.21201     0.79977     -0.124871
C565     C     0.48968     0.71201     0.79977     -0.124871
C566     C     0.51032     0.28799     0.20023     -0.124871
C567     C     0.51032     0.28799     0.79977     -0.124871
C568     C     0.48968     0.71201     0.20023     -0.124871
C569     C     0.51032     0.71201     0.70023     -0.124871
C570     C     0.48968     0.28799     0.29977     -0.124871
C571     C     0.48968     0.28799     0.70023     -0.124871
C572     C     0.51032     0.71201     0.29977     -0.124871
C573     C     0.98968     0.21201     0.29977     -0.124871
C574     C     0.01032     0.78799     0.70023     -0.124871
C575     C     0.01032     0.78799     0.29977     -0.124871
C576     C     0.98968     0.21201     0.70023     -0.124871
C577     C     0.02791     0.20433     0.18134     -0.118407
C578     C     0.97209     0.79567     0.81866     -0.118407
C579     C     0.97209     0.79567     0.18134     -0.118407
C580     C     0.02791     0.20433     0.81866     -0.118407
C581     C     0.47209     0.70433     0.81866     -0.118407
C582     C     0.52791     0.29567     0.18134     -0.118407
C583     C     0.52791     0.29567     0.81866     -0.118407
C584     C     0.47209     0.70433     0.18134     -0.118407
C585     C     0.52791     0.70433     0.68134     -0.118407
C586     C     0.47209     0.29567     0.31866     -0.118407
C587     C     0.47209     0.29567     0.68134     -0.118407
C588     C     0.52791     0.70433     0.31866     -0.118407
C589     C     0.97209     0.20433     0.31866     -0.118407
C590     C     0.02791     0.79567     0.68134     -0.118407
C591     C     0.02791     0.79567     0.31866     -0.118407
C592     C     0.97209     0.20433     0.68134     -0.118407
C593     C     0.05517     0.20285     0.19242     -0.041599
C594     C     0.94483     0.79715     0.80758     -0.041599
C595     C     0.94483     0.79715     0.19242     -0.041599
C596     C     0.05517     0.20285     0.80758     -0.041599
C597     C     0.44483     0.70285     0.80758     -0.041599
C598     C     0.55517     0.29715     0.19242     -0.041599
C599     C     0.55517     0.29715     0.80758     -0.041599
C600     C     0.44483     0.70285     0.19242     -0.041599
C601     C     0.55517     0.70285     0.69242     -0.041599
C602     C     0.44483     0.29715     0.30758     -0.041599
C603     C     0.44483     0.29715     0.69242     -0.041599
C604     C     0.55517     0.70285     0.30758     -0.041599
C605     C     0.94483     0.20285     0.30758     -0.041599
C606     C     0.05517     0.79715     0.69242     -0.041599
C607     C     0.05517     0.79715     0.30758     -0.041599
C608     C     0.94483     0.20285     0.69242     -0.041599
C609     C     0.06399     0.20863     0.22387     -0.111802
C610     C     0.93601     0.79137     0.77613     -0.111802
C611     C     0.93601     0.79137     0.22387     -0.111802
C612     C     0.06399     0.20863     0.77613     -0.111802
C613     C     0.43601     0.70863     0.77613     -0.111802
C614     C     0.56399     0.29137     0.22387     -0.111802
C615     C     0.56399     0.29137     0.77613     -0.111802
C616     C     0.43601     0.70863     0.22387     -0.111802
C617     C     0.56399     0.70863     0.72387     -0.111802
C618     C     0.43601     0.29137     0.27613     -0.111802
C619     C     0.43601     0.29137     0.72387     -0.111802
C620     C     0.56399     0.70863     0.27613     -0.111802
C621     C     0.93601     0.20863     0.27613     -0.111802
C622     C     0.06399     0.79137     0.72387     -0.111802
C623     C     0.06399     0.79137     0.27613     -0.111802
C624     C     0.93601     0.20863     0.72387     -0.111802
C625     C     0.04646     0.21630     0.24271     -0.1262
C626     C     0.95354     0.78370     0.75729     -0.1262
C627     C     0.95354     0.78370     0.24271     -0.1262
C628     C     0.04646     0.21630     0.75729     -0.1262
C629     C     0.45354     0.71630     0.75729     -0.1262
C630     C     0.54646     0.28370     0.24271     -0.1262
C631     C     0.54646     0.28370     0.75729     -0.1262
C632     C     0.45354     0.71630     0.24271     -0.1262
C633     C     0.54646     0.71630     0.74271     -0.1262
C634     C     0.45354     0.28370     0.25729     -0.1262
C635     C     0.45354     0.28370     0.74271     -0.1262
C636     C     0.54646     0.71630     0.25729     -0.1262
C637     C     0.95354     0.21630     0.25729     -0.1262
C638     C     0.04646     0.78370     0.74271     -0.1262
C639     C     0.04646     0.78370     0.25729     -0.1262
C640     C     0.95354     0.21630     0.74271     -0.1262
C641     C     0.07455     0.19543     0.17111     -0.066883
C642     C     0.92545     0.80457     0.82889     -0.066883
C643     C     0.92545     0.80457     0.17111     -0.066883
C644     C     0.07455     0.19543     0.82889     -0.066883
C645     C     0.42545     0.69543     0.82889     -0.066883
C646     C     0.57455     0.30457     0.17111     -0.066883
C647     C     0.57455     0.30457     0.82889     -0.066883
C648     C     0.42545     0.69543     0.17111     -0.066883
C649     C     0.57455     0.69543     0.67111     -0.066883
C650     C     0.42545     0.30457     0.32889     -0.066883
C651     C     0.42545     0.30457     0.67111     -0.066883
C652     C     0.57455     0.69543     0.32889     -0.066883
C653     C     0.92545     0.19543     0.32889     -0.066883
C654     C     0.07455     0.80457     0.67111     -0.066883
C655     C     0.07455     0.80457     0.32889     -0.066883
C656     C     0.92545     0.19543     0.67111     -0.066883
C657     C     0.00675     0.51360     0.19478     -0.124286
C658     C     0.99325     0.48640     0.80522     -0.124286
C659     C     0.99325     0.48640     0.19478     -0.124286
C660     C     0.00675     0.51360     0.80522     -0.124286
C661     C     0.49325     0.01360     0.80522     -0.124286
C662     C     0.50675     0.98640     0.19478     -0.124286
C663     C     0.50675     0.98640     0.80522     -0.124286
C664     C     0.49325     0.01360     0.19478     -0.124286
C665     C     0.50675     0.01360     0.69478     -0.124286
C666     C     0.49325     0.98640     0.30522     -0.124286
C667     C     0.49325     0.98640     0.69478     -0.124286
C668     C     0.50675     0.01360     0.30522     -0.124286
C669     C     0.99325     0.51360     0.30522     -0.124286
C670     C     0.00675     0.48640     0.69478     -0.124286
C671     C     0.00675     0.48640     0.30522     -0.124286
C672     C     0.99325     0.51360     0.69478     -0.124286
C673     C     0.02137     0.52217     0.17510     -0.120621
C674     C     0.97863     0.47783     0.82490     -0.120621
C675     C     0.97863     0.47783     0.17510     -0.120621
C676     C     0.02137     0.52217     0.82490     -0.120621
C677     C     0.47863     0.02217     0.82490     -0.120621
C678     C     0.52137     0.97783     0.17510     -0.120621
C679     C     0.52137     0.97783     0.82490     -0.120621
C680     C     0.47863     0.02217     0.17510     -0.120621
C681     C     0.52137     0.02217     0.67510     -0.120621
C682     C     0.47863     0.97783     0.32490     -0.120621
C683     C     0.47863     0.97783     0.67510     -0.120621
C684     C     0.52137     0.02217     0.32490     -0.120621
C685     C     0.97863     0.52217     0.32490     -0.120621
C686     C     0.02137     0.47783     0.67510     -0.120621
C687     C     0.02137     0.47783     0.32490     -0.120621
C688     C     0.97863     0.52217     0.67510     -0.120621
C689     C     0.05687     0.52214     0.22031     -0.112663
C690     C     0.94313     0.47786     0.77969     -0.112663
C691     C     0.94313     0.47786     0.22031     -0.112663
C692     C     0.05687     0.52214     0.77969     -0.112663
C693     C     0.44313     0.02214     0.77969     -0.112663
C694     C     0.55687     0.97786     0.22031     -0.112663
C695     C     0.55687     0.97786     0.77969     -0.112663
C696     C     0.44313     0.02214     0.22031     -0.112663
C697     C     0.55687     0.02214     0.72031     -0.112663
C698     C     0.44313     0.97786     0.27969     -0.112663
C699     C     0.44313     0.97786     0.72031     -0.112663
C700     C     0.55687     0.02214     0.27969     -0.112663
C701     C     0.94313     0.52214     0.27969     -0.112663
C702     C     0.05687     0.47786     0.72031     -0.112663
C703     C     0.05687     0.47786     0.27969     -0.112663
C704     C     0.94313     0.52214     0.72031     -0.112663
C705     C     0.04224     0.51355     0.24003     -0.123526
C706     C     0.95776     0.48645     0.75997     -0.123526
C707     C     0.95776     0.48645     0.24003     -0.123526
C708     C     0.04224     0.51355     0.75997     -0.123526
C709     C     0.45776     0.01355     0.75997     -0.123526
C710     C     0.54224     0.98645     0.24003     -0.123526
C711     C     0.54224     0.98645     0.75997     -0.123526
C712     C     0.45776     0.01355     0.24003     -0.123526
C713     C     0.54224     0.01355     0.74003     -0.123526
C714     C     0.45776     0.98645     0.25997     -0.123526
C715     C     0.45776     0.98645     0.74003     -0.123526
C716     C     0.54224     0.01355     0.25997     -0.123526
C717     C     0.95776     0.51355     0.25997     -0.123526
C718     C     0.04224     0.48645     0.74003     -0.123526
C719     C     0.04224     0.48645     0.25997     -0.123526
C720     C     0.95776     0.51355     0.74003     -0.123526
C721     C     0.09011     0.53471     0.16034     0.104409
C722     C     0.90989     0.46529     0.83966     0.104409
C723     C     0.90989     0.46529     0.16034     0.104409
C724     C     0.09011     0.53471     0.83966     0.104409
C725     C     0.40989     0.03471     0.83966     0.104409
C726     C     0.59011     0.96529     0.16034     0.104409
C727     C     0.59011     0.96529     0.83966     0.104409
C728     C     0.40989     0.03471     0.16034     0.104409
C729     C     0.59011     0.03471     0.66034     0.104409
C730     C     0.40989     0.96529     0.33966     0.104409
C731     C     0.40989     0.96529     0.66034     0.104409
C732     C     0.59011     0.03471     0.33966     0.104409
C733     C     0.90989     0.53471     0.33966     0.104409
C734     C     0.09011     0.46529     0.66034     0.104409
C735     C     0.09011     0.46529     0.33966     0.104409
C736     C     0.90989     0.53471     0.66034     0.104409
C737     C     0.10396     0.54361     0.14078     -0.143906
C738     C     0.89604     0.45639     0.85922     -0.143906
C739     C     0.89604     0.45639     0.14078     -0.143906
C740     C     0.10396     0.54361     0.85922     -0.143906
C741     C     0.39604     0.04361     0.85922     -0.143906
C742     C     0.60396     0.95639     0.14078     -0.143906
C743     C     0.60396     0.95639     0.85922     -0.143906
C744     C     0.39604     0.04361     0.14078     -0.143906
C745     C     0.60396     0.04361     0.64078     -0.143906
C746     C     0.39604     0.95639     0.35922     -0.143906
C747     C     0.39604     0.95639     0.64078     -0.143906
C748     C     0.60396     0.04361     0.35922     -0.143906
C749     C     0.89604     0.54361     0.35922     -0.143906
C750     C     0.10396     0.45639     0.64078     -0.143906
C751     C     0.10396     0.45639     0.35922     -0.143906
C752     C     0.89604     0.54361     0.64078     -0.143906
C753     C     0.09005     0.55375     0.12766     0.027221
C754     C     0.90995     0.44625     0.87234     0.027221
C755     C     0.90995     0.44625     0.12766     0.027221
C756     C     0.09005     0.55375     0.87234     0.027221
C757     C     0.40995     0.05375     0.87234     0.027221
C758     C     0.59005     0.94625     0.12766     0.027221
C759     C     0.59005     0.94625     0.87234     0.027221
C760     C     0.40995     0.05375     0.12766     0.027221
C761     C     0.59005     0.05375     0.62766     0.027221
C762     C     0.40995     0.94625     0.37234     0.027221
C763     C     0.40995     0.94625     0.62766     0.027221
C764     C     0.59005     0.05375     0.37234     0.027221
C765     C     0.90995     0.55375     0.37234     0.027221
C766     C     0.09005     0.44625     0.62766     0.027221
C767     C     0.09005     0.44625     0.37234     0.027221
C768     C     0.90995     0.55375     0.62766     0.027221
C769     C     0.06166     0.55475     0.13370     -0.17497
C770     C     0.93834     0.44525     0.86630     -0.17497
C771     C     0.93834     0.44525     0.13370     -0.17497
C772     C     0.06166     0.55475     0.86630     -0.17497
C773     C     0.43834     0.05475     0.86630     -0.17497
C774     C     0.56166     0.94525     0.13370     -0.17497
C775     C     0.56166     0.94525     0.86630     -0.17497
C776     C     0.43834     0.05475     0.13370     -0.17497
C777     C     0.56166     0.05475     0.63370     -0.17497
C778     C     0.43834     0.94525     0.36630     -0.17497
C779     C     0.43834     0.94525     0.63370     -0.17497
C780     C     0.56166     0.05475     0.36630     -0.17497
C781     C     0.93834     0.55475     0.36630     -0.17497
C782     C     0.06166     0.44525     0.63370     -0.17497
C783     C     0.06166     0.44525     0.36630     -0.17497
C784     C     0.93834     0.55475     0.63370     -0.17497
C785     C     0.04778     0.54587     0.15319     -0.094494
C786     C     0.95222     0.45413     0.84681     -0.094494
C787     C     0.95222     0.45413     0.15319     -0.094494
C788     C     0.04778     0.54587     0.84681     -0.094494
C789     C     0.45222     0.04587     0.84681     -0.094494
C790     C     0.54778     0.95413     0.15319     -0.094494
C791     C     0.54778     0.95413     0.84681     -0.094494
C792     C     0.45222     0.04587     0.15319     -0.094494
C793     C     0.54778     0.04587     0.65319     -0.094494
C794     C     0.45222     0.95413     0.34681     -0.094494
C795     C     0.45222     0.95413     0.65319     -0.094494
C796     C     0.54778     0.04587     0.34681     -0.094494
C797     C     0.95222     0.54587     0.34681     -0.094494
C798     C     0.04778     0.45413     0.65319     -0.094494
C799     C     0.04778     0.45413     0.34681     -0.094494
C800     C     0.95222     0.54587     0.65319     -0.094494
C801     C     0.83888     0.30472     0.07013     -0.109502
C802     C     0.16112     0.69528     0.92987     -0.109502
C803     C     0.16112     0.69528     0.07013     -0.109502
C804     C     0.83888     0.30472     0.92987     -0.109502
C805     C     0.66112     0.80472     0.92987     -0.109502
C806     C     0.33888     0.19528     0.07013     -0.109502
C807     C     0.33888     0.19528     0.92987     -0.109502
C808     C     0.66112     0.80472     0.07013     -0.109502
C809     C     0.33888     0.80472     0.57013     -0.109502
C810     C     0.66112     0.19528     0.42987     -0.109502
C811     C     0.66112     0.19528     0.57013     -0.109502
C812     C     0.33888     0.80472     0.42987     -0.109502
C813     C     0.16112     0.30472     0.42987     -0.109502
C814     C     0.83888     0.69528     0.57013     -0.109502
C815     C     0.83888     0.69528     0.42987     -0.109502
C816     C     0.16112     0.30472     0.57013     -0.109502
C817     C     0.82874     0.31480     0.05191     -0.128285
C818     C     0.17126     0.68520     0.94809     -0.128285
C819     C     0.17126     0.68520     0.05191     -0.128285
C820     C     0.82874     0.31480     0.94809     -0.128285
C821     C     0.67126     0.81480     0.94809     -0.128285
C822     C     0.32874     0.18520     0.05191     -0.128285
C823     C     0.32874     0.18520     0.94809     -0.128285
C824     C     0.67126     0.81480     0.05191     -0.128285
C825     C     0.32874     0.81480     0.55191     -0.128285
C826     C     0.67126     0.18520     0.44809     -0.128285
C827     C     0.67126     0.18520     0.55191     -0.128285
C828     C     0.32874     0.81480     0.44809     -0.128285
C829     C     0.17126     0.31480     0.44809     -0.128285
C830     C     0.82874     0.68520     0.55191     -0.128285
C831     C     0.82874     0.68520     0.44809     -0.128285
C832     C     0.17126     0.31480     0.55191     -0.128285
C833     C     0.87490     0.32253     0.04539     -0.128405
C834     C     0.12510     0.67747     0.95461     -0.128405
C835     C     0.12510     0.67747     0.04539     -0.128405
C836     C     0.87490     0.32253     0.95461     -0.128405
C837     C     0.62510     0.82253     0.95461     -0.128405
C838     C     0.37490     0.17747     0.04539     -0.128405
C839     C     0.37490     0.17747     0.95461     -0.128405
C840     C     0.62510     0.82253     0.04539     -0.128405
C841     C     0.37490     0.82253     0.54539     -0.128405
C842     C     0.62510     0.17747     0.45461     -0.128405
C843     C     0.62510     0.17747     0.54539     -0.128405
C844     C     0.37490     0.82253     0.45461     -0.128405
C845     C     0.12510     0.32253     0.45461     -0.128405
C846     C     0.87490     0.67747     0.54539     -0.128405
C847     C     0.87490     0.67747     0.45461     -0.128405
C848     C     0.12510     0.32253     0.54539     -0.128405
C849     C     0.88509     0.31245     0.06366     -0.082461
C850     C     0.11491     0.68755     0.93634     -0.082461
C851     C     0.11491     0.68755     0.06366     -0.082461
C852     C     0.88509     0.31245     0.93634     -0.082461
C853     C     0.61491     0.81245     0.93634     -0.082461
C854     C     0.38509     0.18755     0.06366     -0.082461
C855     C     0.38509     0.18755     0.93634     -0.082461
C856     C     0.61491     0.81245     0.06366     -0.082461
C857     C     0.38509     0.81245     0.56366     -0.082461
C858     C     0.61491     0.18755     0.43634     -0.082461
C859     C     0.61491     0.18755     0.56366     -0.082461
C860     C     0.38509     0.81245     0.43634     -0.082461
C861     C     0.11491     0.31245     0.43634     -0.082461
C862     C     0.88509     0.68755     0.56366     -0.082461
C863     C     0.88509     0.68755     0.43634     -0.082461
C864     C     0.11491     0.31245     0.56366     -0.082461
C865     C     0.99389     0.23877     0.18940     -0.125456
C866     C     0.00611     0.76123     0.81060     -0.125456
C867     C     0.00611     0.76123     0.18940     -0.125456
C868     C     0.99389     0.23877     0.81060     -0.125456
C869     C     0.50611     0.73877     0.81060     -0.125456
C870     C     0.49389     0.26123     0.18940     -0.125456
C871     C     0.49389     0.26123     0.81060     -0.125456
C872     C     0.50611     0.73877     0.18940     -0.125456
C873     C     0.49389     0.73877     0.68940     -0.125456
C874     C     0.50611     0.26123     0.31060     -0.125456
C875     C     0.50611     0.26123     0.68940     -0.125456
C876     C     0.49389     0.73877     0.31060     -0.125456
C877     C     0.00611     0.23877     0.31060     -0.125456
C878     C     0.99389     0.76123     0.68940     -0.125456
C879     C     0.99389     0.76123     0.31060     -0.125456
C880     C     0.00611     0.23877     0.68940     -0.125456
C881     C     0.98056     0.24741     0.16828     -0.111282
C882     C     0.01944     0.75259     0.83172     -0.111282
C883     C     0.01944     0.75259     0.16828     -0.111282
C884     C     0.98056     0.24741     0.83172     -0.111282
C885     C     0.51944     0.74741     0.83172     -0.111282
C886     C     0.48056     0.25259     0.16828     -0.111282
C887     C     0.48056     0.25259     0.83172     -0.111282
C888     C     0.51944     0.74741     0.16828     -0.111282
C889     C     0.48056     0.74741     0.66828     -0.111282
C890     C     0.51944     0.25259     0.33172     -0.111282
C891     C     0.51944     0.25259     0.66828     -0.111282
C892     C     0.48056     0.74741     0.33172     -0.111282
C893     C     0.01944     0.24741     0.33172     -0.111282
C894     C     0.98056     0.75259     0.66828     -0.111282
C895     C     0.98056     0.75259     0.33172     -0.111282
C896     C     0.01944     0.24741     0.66828     -0.111282
C897     C     0.94947     0.25164     0.21716     -0.118539
C898     C     0.05053     0.74836     0.78284     -0.118539
C899     C     0.05053     0.74836     0.21716     -0.118539
C900     C     0.94947     0.25164     0.78284     -0.118539
C901     C     0.55053     0.75164     0.78284     -0.118539
C902     C     0.44947     0.24836     0.21716     -0.118539
C903     C     0.44947     0.24836     0.78284     -0.118539
C904     C     0.55053     0.75164     0.21716     -0.118539
C905     C     0.44947     0.75164     0.71716     -0.118539
C906     C     0.55053     0.24836     0.28284     -0.118539
C907     C     0.55053     0.24836     0.71716     -0.118539
C908     C     0.44947     0.75164     0.28284     -0.118539
C909     C     0.05053     0.25164     0.28284     -0.118539
C910     C     0.94947     0.74836     0.71716     -0.118539
C911     C     0.94947     0.74836     0.28284     -0.118539
C912     C     0.05053     0.25164     0.71716     -0.118539
C913     C     0.96272     0.24303     0.23825     -0.122363
C914     C     0.03728     0.75697     0.76175     -0.122363
C915     C     0.03728     0.75697     0.23825     -0.122363
C916     C     0.96272     0.24303     0.76175     -0.122363
C917     C     0.53728     0.74303     0.76175     -0.122363
C918     C     0.46272     0.25697     0.23825     -0.122363
C919     C     0.46272     0.25697     0.76175     -0.122363
C920     C     0.53728     0.74303     0.23825     -0.122363
C921     C     0.46272     0.74303     0.73825     -0.122363
C922     C     0.53728     0.25697     0.26175     -0.122363
C923     C     0.53728     0.25697     0.73825     -0.122363
C924     C     0.46272     0.74303     0.26175     -0.122363
C925     C     0.03728     0.24303     0.26175     -0.122363
C926     C     0.96272     0.75697     0.73825     -0.122363
C927     C     0.96272     0.75697     0.26175     -0.122363
C928     C     0.03728     0.24303     0.73825     -0.122363
C929     C     0.91382     0.26388     0.16025     -0.09428
C930     C     0.08618     0.73612     0.83975     -0.09428
C931     C     0.08618     0.73612     0.16025     -0.09428
C932     C     0.91382     0.26388     0.83975     -0.09428
C933     C     0.58618     0.76388     0.83975     -0.09428
C934     C     0.41382     0.23612     0.16025     -0.09428
C935     C     0.41382     0.23612     0.83975     -0.09428
C936     C     0.58618     0.76388     0.16025     -0.09428
C937     C     0.41382     0.76388     0.66025     -0.09428
C938     C     0.58618     0.23612     0.33975     -0.09428
C939     C     0.58618     0.23612     0.66025     -0.09428
C940     C     0.41382     0.76388     0.33975     -0.09428
C941     C     0.08618     0.26388     0.33975     -0.09428
C942     C     0.91382     0.73612     0.66025     -0.09428
C943     C     0.91382     0.73612     0.33975     -0.09428
C944     C     0.08618     0.26388     0.66025     -0.09428
C945     C     0.90060     0.27300     0.14117     -0.17469
C946     C     0.09940     0.72700     0.85883     -0.17469
C947     C     0.09940     0.72700     0.14117     -0.17469
C948     C     0.90060     0.27300     0.85883     -0.17469
C949     C     0.59940     0.77300     0.85883     -0.17469
C950     C     0.40060     0.22700     0.14117     -0.17469
C951     C     0.40060     0.22700     0.85883     -0.17469
C952     C     0.59940     0.77300     0.14117     -0.17469
C953     C     0.40060     0.77300     0.64117     -0.17469
C954     C     0.59940     0.22700     0.35883     -0.17469
C955     C     0.59940     0.22700     0.64117     -0.17469
C956     C     0.40060     0.77300     0.35883     -0.17469
C957     C     0.09940     0.27300     0.35883     -0.17469
C958     C     0.90060     0.72700     0.64117     -0.17469
C959     C     0.90060     0.72700     0.35883     -0.17469
C960     C     0.09940     0.27300     0.64117     -0.17469
C961     C     0.94453     0.28082     0.12115     -0.139995
C962     C     0.05547     0.71918     0.87885     -0.139995
C963     C     0.05547     0.71918     0.12115     -0.139995
C964     C     0.94453     0.28082     0.87885     -0.139995
C965     C     0.55547     0.78082     0.87885     -0.139995
C966     C     0.44453     0.21918     0.12115     -0.139995
C967     C     0.44453     0.21918     0.87885     -0.139995
C968     C     0.55547     0.78082     0.12115     -0.139995
C969     C     0.44453     0.78082     0.62115     -0.139995
C970     C     0.55547     0.21918     0.37885     -0.139995
C971     C     0.55547     0.21918     0.62115     -0.139995
C972     C     0.44453     0.78082     0.37885     -0.139995
C973     C     0.05547     0.28082     0.37885     -0.139995
C974     C     0.94453     0.71918     0.62115     -0.139995
C975     C     0.94453     0.71918     0.37885     -0.139995
C976     C     0.05547     0.28082     0.62115     -0.139995
C977     C     0.95858     0.27184     0.14009     0.106518
C978     C     0.04142     0.72816     0.85991     0.106518
C979     C     0.04142     0.72816     0.14009     0.106518
C980     C     0.95858     0.27184     0.85991     0.106518
C981     C     0.54142     0.77184     0.85991     0.106518
C982     C     0.45858     0.22816     0.14009     0.106518
C983     C     0.45858     0.22816     0.85991     0.106518
C984     C     0.54142     0.77184     0.14009     0.106518
C985     C     0.45858     0.77184     0.64009     0.106518
C986     C     0.54142     0.22816     0.35991     0.106518
C987     C     0.54142     0.22816     0.64009     0.106518
C988     C     0.45858     0.77184     0.35991     0.106518
C989     C     0.04142     0.27184     0.35991     0.106518
C990     C     0.95858     0.72816     0.64009     0.106518
C991     C     0.95858     0.72816     0.35991     0.106518
C992     C     0.04142     0.27184     0.64009     0.106518
C993     C     0.43298     0.68389     0.15890     -0.094801
C994     C     0.56702     0.31611     0.84110     -0.094801
C995     C     0.56702     0.31611     0.15890     -0.094801
C996     C     0.43298     0.68389     0.84110     -0.094801
C997     C     0.06702     0.18389     0.84110     -0.094801
C998     C     0.93298     0.81611     0.15890     -0.094801
C999     C     0.93298     0.81611     0.84110     -0.094801
C1000     C     0.06702     0.18389     0.15890     -0.094801
C1001     C     0.93298     0.18389     0.65890     -0.094801
C1002     C     0.06702     0.81611     0.34110     -0.094801
C1003     C     0.06702     0.81611     0.65890     -0.094801
C1004     C     0.93298     0.18389     0.34110     -0.094801
C1005     C     0.56702     0.68389     0.34110     -0.094801
C1006     C     0.43298     0.31611     0.65890     -0.094801
C1007     C     0.43298     0.31611     0.34110     -0.094801
C1008     C     0.56702     0.68389     0.65890     -0.094801
C1009     C     0.41458     0.67686     0.13901     -0.173432
C1010     C     0.58542     0.32314     0.86099     -0.173432
C1011     C     0.58542     0.32314     0.13901     -0.173432
C1012     C     0.41458     0.67686     0.86099     -0.173432
C1013     C     0.08542     0.17686     0.86099     -0.173432
C1014     C     0.91458     0.82314     0.13901     -0.173432
C1015     C     0.91458     0.82314     0.86099     -0.173432
C1016     C     0.08542     0.17686     0.13901     -0.173432
C1017     C     0.91458     0.17686     0.63901     -0.173432
C1018     C     0.08542     0.82314     0.36099     -0.173432
C1019     C     0.08542     0.82314     0.63901     -0.173432
C1020     C     0.91458     0.17686     0.36099     -0.173432
C1021     C     0.58542     0.67686     0.36099     -0.173432
C1022     C     0.41458     0.32314     0.63901     -0.173432
C1023     C     0.41458     0.32314     0.36099     -0.173432
C1024     C     0.58542     0.67686     0.63901     -0.173432
C1025     C     0.38828     0.68133     0.13088     0.033589
C1026     C     0.61172     0.31867     0.86912     0.033589
C1027     C     0.61172     0.31867     0.13088     0.033589
C1028     C     0.38828     0.68133     0.86912     0.033589
C1029     C     0.11172     0.18133     0.86912     0.033589
C1030     C     0.88828     0.81867     0.13088     0.033589
C1031     C     0.88828     0.81867     0.86912     0.033589
C1032     C     0.11172     0.18133     0.13088     0.033589
C1033     C     0.88828     0.18133     0.63088     0.033589
C1034     C     0.11172     0.81867     0.36912     0.033589
C1035     C     0.11172     0.81867     0.63088     0.033589
C1036     C     0.88828     0.18133     0.36912     0.033589
C1037     C     0.61172     0.68133     0.36912     0.033589
C1038     C     0.38828     0.31867     0.63088     0.033589
C1039     C     0.38828     0.31867     0.36912     0.033589
C1040     C     0.61172     0.68133     0.63088     0.033589
C1041     C     0.38098     0.69287     0.14273     -0.141479
C1042     C     0.61902     0.30713     0.85727     -0.141479
C1043     C     0.61902     0.30713     0.14273     -0.141479
C1044     C     0.38098     0.69287     0.85727     -0.141479
C1045     C     0.11902     0.19287     0.85727     -0.141479
C1046     C     0.88098     0.80713     0.14273     -0.141479
C1047     C     0.88098     0.80713     0.85727     -0.141479
C1048     C     0.11902     0.19287     0.14273     -0.141479
C1049     C     0.88098     0.19287     0.64273     -0.141479
C1050     C     0.11902     0.80713     0.35727     -0.141479
C1051     C     0.11902     0.80713     0.64273     -0.141479
C1052     C     0.88098     0.19287     0.35727     -0.141479
C1053     C     0.61902     0.69287     0.35727     -0.141479
C1054     C     0.38098     0.30713     0.64273     -0.141479
C1055     C     0.38098     0.30713     0.35727     -0.141479
C1056     C     0.61902     0.69287     0.64273     -0.141479
C1057     C     0.39926     0.69990     0.16259     0.102418
C1058     C     0.60074     0.30010     0.83741     0.102418
C1059     C     0.60074     0.30010     0.16259     0.102418
C1060     C     0.39926     0.69990     0.83741     0.102418
C1061     C     0.10074     0.19990     0.83741     0.102418
C1062     C     0.89926     0.80010     0.16259     0.102418
C1063     C     0.89926     0.80010     0.83741     0.102418
C1064     C     0.10074     0.19990     0.16259     0.102418
C1065     C     0.89926     0.19990     0.66259     0.102418
C1066     C     0.10074     0.80010     0.33741     0.102418
C1067     C     0.10074     0.80010     0.66259     0.102418
C1068     C     0.89926     0.19990     0.33741     0.102418
C1069     C     0.60074     0.69990     0.33741     0.102418
C1070     C     0.39926     0.30010     0.66259     0.102418
C1071     C     0.39926     0.30010     0.33741     0.102418
C1072     C     0.60074     0.69990     0.66259     0.102418
C1073     C     0.50000     0.72735     0.25000     0.124189
C1074     C     0.50000     0.27265     0.75000     0.124189
C1075     C     0.50000     0.27265     0.25000     0.124189
C1076     C     0.50000     0.72735     0.75000     0.124189
C1077     C     0.00000     0.22735     0.75000     0.124189
C1078     C     0.00000     0.77265     0.25000     0.124189
C1079     C     0.00000     0.77265     0.75000     0.124189
C1080     C     0.00000     0.22735     0.25000     0.124189
C1081     C     0.00000     0.50000     0.25000     0.12362
C1082     C     0.00000     0.50000     0.75000     0.12362
C1083     C     0.50000     0.00000     0.75000     0.12362
C1084     C     0.50000     0.00000     0.25000     0.12362
N1     N     0.36825     0.67465     0.11074     -0.198244
N2     N     0.63175     0.32535     0.88926     -0.198244
N3     N     0.63175     0.32535     0.11074     -0.198244
N4     N     0.36825     0.67465     0.88926     -0.198244
N5     N     0.13175     0.17465     0.88926     -0.198244
N6     N     0.86825     0.82535     0.11074     -0.198244
N7     N     0.86825     0.82535     0.88926     -0.198244
N8     N     0.13175     0.17465     0.11074     -0.198244
N9     N     0.86825     0.17465     0.61074     -0.198244
N10     N     0.13175     0.82535     0.38926     -0.198244
N11     N     0.13175     0.82535     0.61074     -0.198244
N12     N     0.86825     0.17465     0.38926     -0.198244
N13     N     0.63175     0.67465     0.38926     -0.198244
N14     N     0.36825     0.32535     0.61074     -0.198244
N15     N     0.36825     0.32535     0.38926     -0.198244
N16     N     0.63175     0.67465     0.61074     -0.198244
N17     N     0.10530     0.56260     0.10762     -0.184358
N18     N     0.89470     0.43740     0.89238     -0.184358
N19     N     0.89470     0.43740     0.10762     -0.184358
N20     N     0.10530     0.56260     0.89238     -0.184358
N21     N     0.39470     0.06260     0.89238     -0.184358
N22     N     0.60530     0.93740     0.10762     -0.184358
N23     N     0.60530     0.93740     0.89238     -0.184358
N24     N     0.39470     0.06260     0.10762     -0.184358
N25     N     0.60530     0.06260     0.60762     -0.184358
N26     N     0.39470     0.93740     0.39238     -0.184358
N27     N     0.39470     0.93740     0.60762     -0.184358
N28     N     0.60530     0.06260     0.39238     -0.184358
N29     N     0.89470     0.56260     0.39238     -0.184358
N30     N     0.10530     0.43740     0.60762     -0.184358
N31     N     0.10530     0.43740     0.39238     -0.184358
N32     N     0.89470     0.56260     0.60762     -0.184358
N33     N     0.09677     0.70868     0.10212     -0.190353
N34     N     0.90323     0.29132     0.89788     -0.190353
N35     N     0.90323     0.29132     0.10212     -0.190353
N36     N     0.09677     0.70868     0.89788     -0.190353
N37     N     0.40323     0.20868     0.89788     -0.190353
N38     N     0.59677     0.79132     0.10212     -0.190353
N39     N     0.59677     0.79132     0.89788     -0.190353
N40     N     0.40323     0.20868     0.10212     -0.190353
N41     N     0.59677     0.20868     0.60212     -0.190353
N42     N     0.40323     0.79132     0.39788     -0.190353
N43     N     0.40323     0.79132     0.60212     -0.190353
N44     N     0.59677     0.20868     0.39788     -0.190353
N45     N     0.90323     0.70868     0.39788     -0.190353
N46     N     0.09677     0.29132     0.60212     -0.190353
N47     N     0.09677     0.29132     0.39788     -0.190353
N48     N     0.90323     0.70868     0.60212     -0.190353
F1     F     0.60846     0.28882     0.17265     -0.099916
F2     F     0.39154     0.71118     0.82735     -0.099916
F3     F     0.39154     0.71118     0.17265     -0.099916
F4     F     0.60846     0.28882     0.82735     -0.099916
F5     F     0.89154     0.78882     0.82735     -0.099916
F6     F     0.10846     0.21118     0.17265     -0.099916
F7     F     0.10846     0.21118     0.82735     -0.099916
F8     F     0.89154     0.78882     0.17265     -0.099916
F9     F     0.10846     0.78882     0.67265     -0.099916
F10     F     0.89154     0.21118     0.32735     -0.099916
F11     F     0.89154     0.21118     0.67265     -0.099916
F12     F     0.10846     0.78882     0.32735     -0.099916
F13     F     0.39154     0.28882     0.32735     -0.099916
F14     F     0.60846     0.71118     0.67265     -0.099916
F15     F     0.60846     0.71118     0.32735     -0.099916
F16     F     0.39154     0.28882     0.67265     -0.099916
F17     F     0.48638     0.22803     0.85992     -0.099668
F18     F     0.51362     0.77197     0.14008     -0.099668
F19     F     0.51362     0.77197     0.85992     -0.099668
F20     F     0.48638     0.22803     0.14008     -0.099668
F21     F     0.01362     0.72803     0.14008     -0.099668
F22     F     0.98638     0.27197     0.85992     -0.099668
F23     F     0.98638     0.27197     0.14008     -0.099668
F24     F     0.01362     0.72803     0.85992     -0.099668
F25     F     0.98638     0.72803     0.35992     -0.099668
F26     F     0.01362     0.27197     0.64008     -0.099668
F27     F     0.01362     0.27197     0.35992     -0.099668
F28     F     0.98638     0.72803     0.64008     -0.099668
F29     F     0.51362     0.22803     0.64008     -0.099668
F30     F     0.48638     0.77197     0.35992     -0.099668
F31     F     0.48638     0.77197     0.64008     -0.099668
F32     F     0.51362     0.22803     0.35992     -0.099668
F33     F     0.10424     0.47510     0.32801     -0.100099
F34     F     0.89576     0.52490     0.67199     -0.100099
F35     F     0.89576     0.52490     0.32801     -0.100099
F36     F     0.10424     0.47510     0.67199     -0.100099
F37     F     0.39576     0.97510     0.67199     -0.100099
F38     F     0.60424     0.02490     0.32801     -0.100099
F39     F     0.60424     0.02490     0.67199     -0.100099
F40     F     0.39576     0.97510     0.32801     -0.100099
F41     F     0.60424     0.97510     0.82801     -0.100099
F42     F     0.39576     0.02490     0.17199     -0.100099
F43     F     0.39576     0.02490     0.82801     -0.100099
F44     F     0.60424     0.97510     0.17199     -0.100099
F45     F     0.89576     0.47510     0.17199     -0.100099
F46     F     0.10424     0.52490     0.82801     -0.100099
F47     F     0.10424     0.52490     0.17199     -0.100099
F48     F     0.89576     0.47510     0.82801     -0.100099
H1     H     0.25614     0.63966     0.06859     0.148149
H2     H     0.74386     0.36034     0.93141     0.148149
H3     H     0.74386     0.36034     0.06859     0.148149
H4     H     0.25614     0.63966     0.93141     0.148149
H5     H     0.24386     0.13966     0.93141     0.148149
H6     H     0.75614     0.86034     0.06859     0.148149
H7     H     0.75614     0.86034     0.93141     0.148149
H8     H     0.24386     0.13966     0.06859     0.148149
H9     H     0.75614     0.13966     0.56859     0.148149
H10     H     0.24386     0.86034     0.43141     0.148149
H11     H     0.24386     0.86034     0.56859     0.148149
H12     H     0.75614     0.13966     0.43141     0.148149
H13     H     0.74386     0.63966     0.43141     0.148149
H14     H     0.25614     0.36034     0.56859     0.148149
H15     H     0.25614     0.36034     0.43141     0.148149
H16     H     0.74386     0.63966     0.56859     0.148149
H17     H     0.39002     0.65843     0.10162     0.103338
H18     H     0.60998     0.34157     0.89838     0.103338
H19     H     0.60998     0.34157     0.10162     0.103338
H20     H     0.39002     0.65843     0.89838     0.103338
H21     H     0.10998     0.15843     0.89838     0.103338
H22     H     0.89002     0.84157     0.10162     0.103338
H23     H     0.89002     0.84157     0.89838     0.103338
H24     H     0.10998     0.15843     0.10162     0.103338
H25     H     0.89002     0.15843     0.60162     0.103338
H26     H     0.10998     0.84157     0.39838     0.103338
H27     H     0.10998     0.84157     0.60162     0.103338
H28     H     0.89002     0.15843     0.39838     0.103338
H29     H     0.60998     0.65843     0.39838     0.103338
H30     H     0.39002     0.34157     0.60162     0.103338
H31     H     0.39002     0.34157     0.39838     0.103338
H32     H     0.60998     0.65843     0.60162     0.103338
H33     H     0.07678     0.57693     0.11098     0.104643
H34     H     0.92322     0.42307     0.88902     0.104643
H35     H     0.92322     0.42307     0.11098     0.104643
H36     H     0.07678     0.57693     0.88902     0.104643
H37     H     0.42322     0.07693     0.88902     0.104643
H38     H     0.57678     0.92307     0.11098     0.104643
H39     H     0.57678     0.92307     0.88902     0.104643
H40     H     0.42322     0.07693     0.11098     0.104643
H41     H     0.57678     0.07693     0.61098     0.104643
H42     H     0.42322     0.92307     0.38902     0.104643
H43     H     0.42322     0.92307     0.61098     0.104643
H44     H     0.57678     0.07693     0.38902     0.104643
H45     H     0.92322     0.57693     0.38902     0.104643
H46     H     0.07678     0.42307     0.61098     0.104643
H47     H     0.07678     0.42307     0.38902     0.104643
H48     H     0.92322     0.57693     0.61098     0.104643
H49     H     0.17766     0.61593     0.06861     0.147909
H50     H     0.82234     0.38407     0.93139     0.147909
H51     H     0.82234     0.38407     0.06861     0.147909
H52     H     0.17766     0.61593     0.93139     0.147909
H53     H     0.32234     0.11593     0.93139     0.147909
H54     H     0.67766     0.88407     0.06861     0.147909
H55     H     0.67766     0.88407     0.93139     0.147909
H56     H     0.32234     0.11593     0.06861     0.147909
H57     H     0.67766     0.11593     0.56861     0.147909
H58     H     0.32234     0.88407     0.43139     0.147909
H59     H     0.32234     0.88407     0.56861     0.147909
H60     H     0.67766     0.11593     0.43139     0.147909
H61     H     0.82234     0.61593     0.43139     0.147909
H62     H     0.17766     0.38407     0.56861     0.147909
H63     H     0.17766     0.38407     0.43139     0.147909
H64     H     0.82234     0.61593     0.56861     0.147909
H65     H     0.17617     0.65621     0.06866     0.148558
H66     H     0.82383     0.34379     0.93134     0.148558
H67     H     0.82383     0.34379     0.06866     0.148558
H68     H     0.17617     0.65621     0.93134     0.148558
H69     H     0.32383     0.15621     0.93134     0.148558
H70     H     0.67617     0.84379     0.06866     0.148558
H71     H     0.67617     0.84379     0.93134     0.148558
H72     H     0.32383     0.15621     0.06866     0.148558
H73     H     0.67617     0.15621     0.56866     0.148558
H74     H     0.32383     0.84379     0.43134     0.148558
H75     H     0.32383     0.84379     0.56866     0.148558
H76     H     0.67617     0.15621     0.43134     0.148558
H77     H     0.82383     0.65621     0.43134     0.148558
H78     H     0.17617     0.34379     0.56866     0.148558
H79     H     0.17617     0.34379     0.43134     0.148558
H80     H     0.82383     0.65621     0.56866     0.148558
H81     H     0.13775     0.71452     0.10499     0.103439
H82     H     0.86225     0.28548     0.89501     0.103439
H83     H     0.86225     0.28548     0.10499     0.103439
H84     H     0.13775     0.71452     0.89501     0.103439
H85     H     0.36225     0.21452     0.89501     0.103439
H86     H     0.63775     0.78548     0.10499     0.103439
H87     H     0.63775     0.78548     0.89501     0.103439
H88     H     0.36225     0.21452     0.10499     0.103439
H89     H     0.63775     0.21452     0.60499     0.103439
H90     H     0.36225     0.78548     0.39501     0.103439
H91     H     0.36225     0.78548     0.60499     0.103439
H92     H     0.63775     0.21452     0.39501     0.103439
H93     H     0.86225     0.71452     0.39501     0.103439
H94     H     0.13775     0.28548     0.60499     0.103439
H95     H     0.13775     0.28548     0.39501     0.103439
H96     H     0.86225     0.71452     0.60499     0.103439
H97     H     0.20380     0.63628     0.06650     0.127553
H98     H     0.79620     0.36372     0.93350     0.127553
H99     H     0.79620     0.36372     0.06650     0.127553
H100     H     0.20380     0.63628     0.93350     0.127553
H101     H     0.29620     0.13628     0.93350     0.127553
H102     H     0.70380     0.86372     0.06650     0.127553
H103     H     0.70380     0.86372     0.93350     0.127553
H104     H     0.29620     0.13628     0.06650     0.127553
H105     H     0.70380     0.13628     0.56650     0.127553
H106     H     0.29620     0.86372     0.43350     0.127553
H107     H     0.29620     0.86372     0.56650     0.127553
H108     H     0.70380     0.13628     0.43350     0.127553
H109     H     0.79620     0.63628     0.43350     0.127553
H110     H     0.20380     0.36372     0.56650     0.127553
H111     H     0.20380     0.36372     0.43350     0.127553
H112     H     0.79620     0.63628     0.56650     0.127553
H113     H     0.41477     0.09678     0.08530     0.136398
H114     H     0.58523     0.90322     0.91470     0.136398
H115     H     0.58523     0.90322     0.08530     0.136398
H116     H     0.41477     0.09678     0.91470     0.136398
H117     H     0.08523     0.59678     0.91470     0.136398
H118     H     0.91477     0.40322     0.08530     0.136398
H119     H     0.91477     0.40322     0.91470     0.136398
H120     H     0.08523     0.59678     0.08530     0.136398
H121     H     0.91477     0.59678     0.58530     0.136398
H122     H     0.08523     0.40322     0.41470     0.136398
H123     H     0.08523     0.40322     0.58530     0.136398
H124     H     0.91477     0.59678     0.41470     0.136398
H125     H     0.58523     0.09678     0.41470     0.136398
H126     H     0.41477     0.90322     0.58530     0.136398
H127     H     0.41477     0.90322     0.41470     0.136398
H128     H     0.58523     0.09678     0.58530     0.136398
H129     H     0.38566     0.11149     0.04962     0.143166
H130     H     0.61434     0.88851     0.95038     0.143166
H131     H     0.61434     0.88851     0.04962     0.143166
H132     H     0.38566     0.11149     0.95038     0.143166
H133     H     0.11434     0.61149     0.95038     0.143166
H134     H     0.88566     0.38851     0.04962     0.143166
H135     H     0.88566     0.38851     0.95038     0.143166
H136     H     0.11434     0.61149     0.04962     0.143166
H137     H     0.88566     0.61149     0.54962     0.143166
H138     H     0.11434     0.38851     0.45038     0.143166
H139     H     0.11434     0.38851     0.54962     0.143166
H140     H     0.88566     0.61149     0.45038     0.143166
H141     H     0.61434     0.11149     0.45038     0.143166
H142     H     0.38566     0.88851     0.54962     0.143166
H143     H     0.38566     0.88851     0.45038     0.143166
H144     H     0.61434     0.11149     0.54962     0.143166
H145     H     0.32350     0.08328     0.03365     0.143558
H146     H     0.67650     0.91672     0.96635     0.143558
H147     H     0.67650     0.91672     0.03365     0.143558
H148     H     0.32350     0.08328     0.96635     0.143558
H149     H     0.17650     0.58328     0.96635     0.143558
H150     H     0.82350     0.41672     0.03365     0.143558
H151     H     0.82350     0.41672     0.96635     0.143558
H152     H     0.17650     0.58328     0.03365     0.143558
H153     H     0.82350     0.58328     0.53365     0.143558
H154     H     0.17650     0.41672     0.46635     0.143558
H155     H     0.17650     0.41672     0.53365     0.143558
H156     H     0.82350     0.58328     0.46635     0.143558
H157     H     0.67650     0.08328     0.46635     0.143558
H158     H     0.32350     0.91672     0.53365     0.143558
H159     H     0.32350     0.91672     0.46635     0.143558
H160     H     0.67650     0.08328     0.53365     0.143558
H161     H     0.35255     0.06853     0.06942     0.164324
H162     H     0.64745     0.93147     0.93058     0.164324
H163     H     0.64745     0.93147     0.06942     0.164324
H164     H     0.35255     0.06853     0.93058     0.164324
H165     H     0.14745     0.56853     0.93058     0.164324
H166     H     0.85255     0.43147     0.06942     0.164324
H167     H     0.85255     0.43147     0.93058     0.164324
H168     H     0.14745     0.56853     0.06942     0.164324
H169     H     0.85255     0.56853     0.56942     0.164324
H170     H     0.14745     0.43147     0.43058     0.164324
H171     H     0.14745     0.43147     0.56942     0.164324
H172     H     0.85255     0.56853     0.43058     0.164324
H173     H     0.64745     0.06853     0.43058     0.164324
H174     H     0.35255     0.93147     0.56942     0.164324
H175     H     0.35255     0.93147     0.43058     0.164324
H176     H     0.64745     0.06853     0.56942     0.164324
H177     H     0.13094     0.14137     0.06775     0.135483
H178     H     0.86906     0.85863     0.93225     0.135483
H179     H     0.86906     0.85863     0.06775     0.135483
H180     H     0.13094     0.14137     0.93225     0.135483
H181     H     0.36906     0.64137     0.93225     0.135483
H182     H     0.63094     0.35863     0.06775     0.135483
H183     H     0.63094     0.35863     0.93225     0.135483
H184     H     0.36906     0.64137     0.06775     0.135483
H185     H     0.63094     0.64137     0.56775     0.135483
H186     H     0.36906     0.35863     0.43225     0.135483
H187     H     0.36906     0.35863     0.56775     0.135483
H188     H     0.63094     0.64137     0.43225     0.135483
H189     H     0.86906     0.14137     0.43225     0.135483
H190     H     0.13094     0.85863     0.56775     0.135483
H191     H     0.13094     0.85863     0.43225     0.135483
H192     H     0.86906     0.14137     0.56775     0.135483
H193     H     0.17064     0.13203     0.03347     0.141685
H194     H     0.82936     0.86797     0.96653     0.141685
H195     H     0.82936     0.86797     0.03347     0.141685
H196     H     0.17064     0.13203     0.96653     0.141685
H197     H     0.32936     0.63203     0.96653     0.141685
H198     H     0.67064     0.36797     0.03347     0.141685
H199     H     0.67064     0.36797     0.96653     0.141685
H200     H     0.32936     0.63203     0.03347     0.141685
H201     H     0.67064     0.63203     0.53347     0.141685
H202     H     0.32936     0.36797     0.46653     0.141685
H203     H     0.32936     0.36797     0.53347     0.141685
H204     H     0.67064     0.63203     0.46653     0.141685
H205     H     0.82936     0.13203     0.46653     0.141685
H206     H     0.17064     0.86797     0.53347     0.141685
H207     H     0.17064     0.86797     0.46653     0.141685
H208     H     0.82936     0.13203     0.53347     0.141685
H209     H     0.21881     0.16512     0.04960     0.144316
H210     H     0.78119     0.83488     0.95040     0.144316
H211     H     0.78119     0.83488     0.04960     0.144316
H212     H     0.21881     0.16512     0.95040     0.144316
H213     H     0.28119     0.66512     0.95040     0.144316
H214     H     0.71881     0.33488     0.04960     0.144316
H215     H     0.71881     0.33488     0.95040     0.144316
H216     H     0.28119     0.66512     0.04960     0.144316
H217     H     0.71881     0.66512     0.54960     0.144316
H218     H     0.28119     0.33488     0.45040     0.144316
H219     H     0.28119     0.33488     0.54960     0.144316
H220     H     0.71881     0.66512     0.45040     0.144316
H221     H     0.78119     0.16512     0.45040     0.144316
H222     H     0.21881     0.83488     0.54960     0.144316
H223     H     0.21881     0.83488     0.45040     0.144316
H224     H     0.78119     0.16512     0.54960     0.144316
H225     H     0.17926     0.17447     0.08386     0.164406
H226     H     0.82074     0.82553     0.91614     0.164406
H227     H     0.82074     0.82553     0.08386     0.164406
H228     H     0.17926     0.17447     0.91614     0.164406
H229     H     0.32074     0.67447     0.91614     0.164406
H230     H     0.67926     0.32553     0.08386     0.164406
H231     H     0.67926     0.32553     0.91614     0.164406
H232     H     0.32074     0.67447     0.08386     0.164406
H233     H     0.67926     0.67447     0.58386     0.164406
H234     H     0.32074     0.32553     0.41614     0.164406
H235     H     0.32074     0.32553     0.58386     0.164406
H236     H     0.67926     0.67447     0.41614     0.164406
H237     H     0.82074     0.17447     0.41614     0.164406
H238     H     0.17926     0.82553     0.58386     0.164406
H239     H     0.17926     0.82553     0.41614     0.164406
H240     H     0.82074     0.17447     0.58386     0.164406
H241     H     0.98800     0.21292     0.19165     0.144917
H242     H     0.01200     0.78708     0.80835     0.144917
H243     H     0.01200     0.78708     0.19165     0.144917
H244     H     0.98800     0.21292     0.80835     0.144917
H245     H     0.51200     0.71292     0.80835     0.144917
H246     H     0.48800     0.28708     0.19165     0.144917
H247     H     0.48800     0.28708     0.80835     0.144917
H248     H     0.51200     0.71292     0.19165     0.144917
H249     H     0.48800     0.71292     0.69165     0.144917
H250     H     0.51200     0.28708     0.30835     0.144917
H251     H     0.51200     0.28708     0.69165     0.144917
H252     H     0.48800     0.71292     0.30835     0.144917
H253     H     0.01200     0.21292     0.30835     0.144917
H254     H     0.98800     0.78708     0.69165     0.144917
H255     H     0.98800     0.78708     0.30835     0.144917
H256     H     0.01200     0.21292     0.69165     0.144917
H257     H     0.02012     0.19923     0.15678     0.138749
H258     H     0.97988     0.80077     0.84322     0.138749
H259     H     0.97988     0.80077     0.15678     0.138749
H260     H     0.02012     0.19923     0.84322     0.138749
H261     H     0.47988     0.69923     0.84322     0.138749
H262     H     0.52012     0.30077     0.15678     0.138749
H263     H     0.52012     0.30077     0.84322     0.138749
H264     H     0.47988     0.69923     0.15678     0.138749
H265     H     0.52012     0.69923     0.65678     0.138749
H266     H     0.47988     0.30077     0.34322     0.138749
H267     H     0.47988     0.30077     0.65678     0.138749
H268     H     0.52012     0.69923     0.34322     0.138749
H269     H     0.97988     0.19923     0.34322     0.138749
H270     H     0.02012     0.80077     0.65678     0.138749
H271     H     0.02012     0.80077     0.34322     0.138749
H272     H     0.97988     0.19923     0.65678     0.138749
H273     H     0.08567     0.20708     0.23427     0.14375
H274     H     0.91433     0.79292     0.76573     0.14375
H275     H     0.91433     0.79292     0.23427     0.14375
H276     H     0.08567     0.20708     0.76573     0.14375
H277     H     0.41433     0.70708     0.76573     0.14375
H278     H     0.58567     0.29292     0.23427     0.14375
H279     H     0.58567     0.29292     0.76573     0.14375
H280     H     0.41433     0.70708     0.23427     0.14375
H281     H     0.58567     0.70708     0.73427     0.14375
H282     H     0.41433     0.29292     0.26573     0.14375
H283     H     0.41433     0.29292     0.73427     0.14375
H284     H     0.58567     0.70708     0.26573     0.14375
H285     H     0.91433     0.20708     0.26573     0.14375
H286     H     0.08567     0.79292     0.73427     0.14375
H287     H     0.08567     0.79292     0.26573     0.14375
H288     H     0.91433     0.20708     0.73427     0.14375
H289     H     0.05362     0.22071     0.26875     0.1473
H290     H     0.94638     0.77929     0.73125     0.1473
H291     H     0.94638     0.77929     0.26875     0.1473
H292     H     0.05362     0.22071     0.73125     0.1473
H293     H     0.44638     0.72071     0.73125     0.1473
H294     H     0.55362     0.27929     0.26875     0.1473
H295     H     0.55362     0.27929     0.73125     0.1473
H296     H     0.44638     0.72071     0.26875     0.1473
H297     H     0.55362     0.72071     0.76875     0.1473
H298     H     0.44638     0.27929     0.23125     0.1473
H299     H     0.44638     0.27929     0.76875     0.1473
H300     H     0.55362     0.72071     0.23125     0.1473
H301     H     0.94638     0.22071     0.23125     0.1473
H302     H     0.05362     0.77929     0.76875     0.1473
H303     H     0.05362     0.77929     0.23125     0.1473
H304     H     0.94638     0.22071     0.76875     0.1473
H305     H     0.98586     0.51055     0.18451     0.145332
H306     H     0.01414     0.48945     0.81549     0.145332
H307     H     0.01414     0.48945     0.18451     0.145332
H308     H     0.98586     0.51055     0.81549     0.145332
H309     H     0.51414     0.01055     0.81549     0.145332
H310     H     0.48586     0.98945     0.18451     0.145332
H311     H     0.48586     0.98945     0.81549     0.145332
H312     H     0.51414     0.01055     0.18451     0.145332
H313     H     0.48586     0.01055     0.68451     0.145332
H314     H     0.51414     0.98945     0.31549     0.145332
H315     H     0.51414     0.98945     0.68451     0.145332
H316     H     0.48586     0.01055     0.31549     0.145332
H317     H     0.01414     0.51055     0.31549     0.145332
H318     H     0.98586     0.48945     0.68451     0.145332
H319     H     0.98586     0.48945     0.31549     0.145332
H320     H     0.01414     0.51055     0.68451     0.145332
H321     H     0.01255     0.52569     0.14874     0.139021
H322     H     0.98745     0.47431     0.85126     0.139021
H323     H     0.98745     0.47431     0.14874     0.139021
H324     H     0.01255     0.52569     0.85126     0.139021
H325     H     0.48745     0.02569     0.85126     0.139021
H326     H     0.51255     0.97431     0.14874     0.139021
H327     H     0.51255     0.97431     0.85126     0.139021
H328     H     0.48745     0.02569     0.14874     0.139021
H329     H     0.51255     0.02569     0.64874     0.139021
H330     H     0.48745     0.97431     0.35126     0.139021
H331     H     0.48745     0.97431     0.64874     0.139021
H332     H     0.51255     0.02569     0.35126     0.139021
H333     H     0.98745     0.52569     0.35126     0.139021
H334     H     0.01255     0.47431     0.64874     0.139021
H335     H     0.01255     0.47431     0.35126     0.139021
H336     H     0.98745     0.52569     0.64874     0.139021
H337     H     0.07723     0.52564     0.23112     0.145245
H338     H     0.92277     0.47436     0.76888     0.145245
H339     H     0.92277     0.47436     0.23112     0.145245
H340     H     0.07723     0.52564     0.76888     0.145245
H341     H     0.42277     0.02564     0.76888     0.145245
H342     H     0.57723     0.97436     0.23112     0.145245
H343     H     0.57723     0.97436     0.76888     0.145245
H344     H     0.42277     0.02564     0.23112     0.145245
H345     H     0.57723     0.02564     0.73112     0.145245
H346     H     0.42277     0.97436     0.26888     0.145245
H347     H     0.42277     0.97436     0.73112     0.145245
H348     H     0.57723     0.02564     0.26888     0.145245
H349     H     0.92277     0.52564     0.26888     0.145245
H350     H     0.07723     0.47436     0.73112     0.145245
H351     H     0.07723     0.47436     0.26888     0.145245
H352     H     0.92277     0.52564     0.73112     0.145245
H353     H     0.05064     0.51046     0.26709     0.146179
H354     H     0.94936     0.48954     0.73291     0.146179
H355     H     0.94936     0.48954     0.26709     0.146179
H356     H     0.05064     0.51046     0.73291     0.146179
H357     H     0.44936     0.01046     0.73291     0.146179
H358     H     0.55064     0.98954     0.26709     0.146179
H359     H     0.55064     0.98954     0.73291     0.146179
H360     H     0.44936     0.01046     0.26709     0.146179
H361     H     0.55064     0.01046     0.76709     0.146179
H362     H     0.44936     0.98954     0.23291     0.146179
H363     H     0.44936     0.98954     0.76709     0.146179
H364     H     0.55064     0.01046     0.23291     0.146179
H365     H     0.94936     0.51046     0.23291     0.146179
H366     H     0.05064     0.48954     0.76709     0.146179
H367     H     0.05064     0.48954     0.23291     0.146179
H368     H     0.94936     0.51046     0.76709     0.146179
H369     H     0.12684     0.54265     0.13536     0.167274
H370     H     0.87316     0.45735     0.86464     0.167274
H371     H     0.87316     0.45735     0.13536     0.167274
H372     H     0.12684     0.54265     0.86464     0.167274
H373     H     0.37316     0.04265     0.86464     0.167274
H374     H     0.62684     0.95735     0.13536     0.167274
H375     H     0.62684     0.95735     0.86464     0.167274
H376     H     0.37316     0.04265     0.13536     0.167274
H377     H     0.62684     0.04265     0.63536     0.167274
H378     H     0.37316     0.95735     0.36464     0.167274
H379     H     0.37316     0.95735     0.63536     0.167274
H380     H     0.62684     0.04265     0.36464     0.167274
H381     H     0.87316     0.54265     0.36464     0.167274
H382     H     0.12684     0.45735     0.63536     0.167274
H383     H     0.12684     0.45735     0.36464     0.167274
H384     H     0.87316     0.54265     0.63536     0.167274
H385     H     0.04990     0.56283     0.12267     0.1391
H386     H     0.95010     0.43717     0.87733     0.1391
H387     H     0.95010     0.43717     0.12267     0.1391
H388     H     0.04990     0.56283     0.87733     0.1391
H389     H     0.45010     0.06283     0.87733     0.1391
H390     H     0.54990     0.93717     0.12267     0.1391
H391     H     0.54990     0.93717     0.87733     0.1391
H392     H     0.45010     0.06283     0.12267     0.1391
H393     H     0.54990     0.06283     0.62267     0.1391
H394     H     0.45010     0.93717     0.37733     0.1391
H395     H     0.45010     0.93717     0.62267     0.1391
H396     H     0.54990     0.06283     0.37733     0.1391
H397     H     0.95010     0.56283     0.37733     0.1391
H398     H     0.04990     0.43717     0.62267     0.1391
H399     H     0.04990     0.43717     0.37733     0.1391
H400     H     0.95010     0.56283     0.62267     0.1391
H401     H     0.02482     0.54686     0.15794     0.149879
H402     H     0.97518     0.45314     0.84206     0.149879
H403     H     0.97518     0.45314     0.15794     0.149879
H404     H     0.02482     0.54686     0.84206     0.149879
H405     H     0.47518     0.04686     0.84206     0.149879
H406     H     0.52482     0.95314     0.15794     0.149879
H407     H     0.52482     0.95314     0.84206     0.149879
H408     H     0.47518     0.04686     0.15794     0.149879
H409     H     0.52482     0.04686     0.65794     0.149879
H410     H     0.47518     0.95314     0.34206     0.149879
H411     H     0.47518     0.95314     0.65794     0.149879
H412     H     0.52482     0.04686     0.34206     0.149879
H413     H     0.97518     0.54686     0.34206     0.149879
H414     H     0.02482     0.45314     0.65794     0.149879
H415     H     0.02482     0.45314     0.34206     0.149879
H416     H     0.97518     0.54686     0.65794     0.149879
H417     H     0.82420     0.29747     0.08022     0.136649
H418     H     0.17580     0.70253     0.91978     0.136649
H419     H     0.17580     0.70253     0.08022     0.136649
H420     H     0.82420     0.29747     0.91978     0.136649
H421     H     0.67580     0.79747     0.91978     0.136649
H422     H     0.32420     0.20253     0.08022     0.136649
H423     H     0.32420     0.20253     0.91978     0.136649
H424     H     0.67580     0.79747     0.08022     0.136649
H425     H     0.32420     0.79747     0.58022     0.136649
H426     H     0.67580     0.20253     0.41978     0.136649
H427     H     0.67580     0.20253     0.58022     0.136649
H428     H     0.32420     0.79747     0.41978     0.136649
H429     H     0.17580     0.29747     0.41978     0.136649
H430     H     0.82420     0.70253     0.58022     0.136649
H431     H     0.82420     0.70253     0.41978     0.136649
H432     H     0.17580     0.29747     0.58022     0.136649
H433     H     0.80578     0.31579     0.04719     0.142652
H434     H     0.19422     0.68421     0.95281     0.142652
H435     H     0.19422     0.68421     0.04719     0.142652
H436     H     0.80578     0.31579     0.95281     0.142652
H437     H     0.69422     0.81579     0.95281     0.142652
H438     H     0.30578     0.18421     0.04719     0.142652
H439     H     0.30578     0.18421     0.95281     0.142652
H440     H     0.69422     0.81579     0.04719     0.142652
H441     H     0.30578     0.81579     0.54719     0.142652
H442     H     0.69422     0.18421     0.45281     0.142652
H443     H     0.69422     0.18421     0.54719     0.142652
H444     H     0.30578     0.81579     0.45281     0.142652
H445     H     0.19422     0.31579     0.45281     0.142652
H446     H     0.80578     0.68421     0.54719     0.142652
H447     H     0.80578     0.68421     0.45281     0.142652
H448     H     0.19422     0.31579     0.54719     0.142652
H449     H     0.88955     0.32980     0.03535     0.143414
H450     H     0.11045     0.67020     0.96465     0.143414
H451     H     0.11045     0.67020     0.03535     0.143414
H452     H     0.88955     0.32980     0.96465     0.143414
H453     H     0.61045     0.82980     0.96465     0.143414
H454     H     0.38955     0.17020     0.03535     0.143414
H455     H     0.38955     0.17020     0.96465     0.143414
H456     H     0.61045     0.82980     0.03535     0.143414
H457     H     0.38955     0.82980     0.53535     0.143414
H458     H     0.61045     0.17020     0.46465     0.143414
H459     H     0.61045     0.17020     0.53535     0.143414
H460     H     0.38955     0.82980     0.46465     0.143414
H461     H     0.11045     0.32980     0.46465     0.143414
H462     H     0.88955     0.67020     0.53535     0.143414
H463     H     0.88955     0.67020     0.46465     0.143414
H464     H     0.11045     0.32980     0.53535     0.143414
H465     H     0.90805     0.31150     0.06850     0.164443
H466     H     0.09195     0.68850     0.93150     0.164443
H467     H     0.09195     0.68850     0.06850     0.164443
H468     H     0.90805     0.31150     0.93150     0.164443
H469     H     0.59195     0.81150     0.93150     0.164443
H470     H     0.40805     0.18850     0.06850     0.164443
H471     H     0.40805     0.18850     0.93150     0.164443
H472     H     0.59195     0.81150     0.06850     0.164443
H473     H     0.40805     0.81150     0.56850     0.164443
H474     H     0.59195     0.18850     0.43150     0.164443
H475     H     0.59195     0.18850     0.56850     0.164443
H476     H     0.40805     0.81150     0.43150     0.164443
H477     H     0.09195     0.31150     0.43150     0.164443
H478     H     0.90805     0.68850     0.56850     0.164443
H479     H     0.90805     0.68850     0.43150     0.164443
H480     H     0.09195     0.31150     0.56850     0.164443
H481     H     0.01248     0.23377     0.17835     0.148027
H482     H     0.98752     0.76623     0.82165     0.148027
H483     H     0.98752     0.76623     0.17835     0.148027
H484     H     0.01248     0.23377     0.82165     0.148027
H485     H     0.48752     0.73377     0.82165     0.148027
H486     H     0.51248     0.26623     0.17835     0.148027
H487     H     0.51248     0.26623     0.82165     0.148027
H488     H     0.48752     0.73377     0.17835     0.148027
H489     H     0.51248     0.73377     0.67835     0.148027
H490     H     0.48752     0.26623     0.32165     0.148027
H491     H     0.48752     0.26623     0.67835     0.148027
H492     H     0.51248     0.73377     0.32165     0.148027
H493     H     0.98752     0.23377     0.32165     0.148027
H494     H     0.01248     0.76623     0.67835     0.148027
H495     H     0.01248     0.76623     0.32165     0.148027
H496     H     0.98752     0.23377     0.67835     0.148027
H497     H     0.98783     0.24922     0.13967     0.146658
H498     H     0.01217     0.75078     0.86033     0.146658
H499     H     0.01217     0.75078     0.13967     0.146658
H500     H     0.98783     0.24922     0.86033     0.146658
H501     H     0.51217     0.74922     0.86033     0.146658
H502     H     0.48783     0.25078     0.13967     0.146658
H503     H     0.48783     0.25078     0.86033     0.146658
H504     H     0.51217     0.74922     0.13967     0.146658
H505     H     0.48783     0.74922     0.63967     0.146658
H506     H     0.51217     0.25078     0.36033     0.146658
H507     H     0.51217     0.25078     0.63967     0.146658
H508     H     0.48783     0.74922     0.36033     0.146658
H509     H     0.01217     0.24922     0.36033     0.146658
H510     H     0.98783     0.75078     0.63967     0.146658
H511     H     0.98783     0.75078     0.36033     0.146658
H512     H     0.01217     0.24922     0.63967     0.146658
H513     H     0.93135     0.25689     0.22853     0.139416
H514     H     0.06865     0.74311     0.77147     0.139416
H515     H     0.06865     0.74311     0.22853     0.139416
H516     H     0.93135     0.25689     0.77147     0.139416
H517     H     0.56865     0.75689     0.77147     0.139416
H518     H     0.43135     0.24311     0.22853     0.139416
H519     H     0.43135     0.24311     0.77147     0.139416
H520     H     0.56865     0.75689     0.22853     0.139416
H521     H     0.43135     0.75689     0.72853     0.139416
H522     H     0.56865     0.24311     0.27147     0.139416
H523     H     0.56865     0.24311     0.72853     0.139416
H524     H     0.43135     0.75689     0.27147     0.139416
H525     H     0.06865     0.25689     0.27147     0.139416
H526     H     0.93135     0.74311     0.72853     0.139416
H527     H     0.93135     0.74311     0.27147     0.139416
H528     H     0.06865     0.25689     0.72853     0.139416
H529     H     0.95591     0.24147     0.26718     0.146605
H530     H     0.04409     0.75853     0.73282     0.146605
H531     H     0.04409     0.75853     0.26718     0.146605
H532     H     0.95591     0.24147     0.73282     0.146605
H533     H     0.54409     0.74147     0.73282     0.146605
H534     H     0.45591     0.25853     0.26718     0.146605
H535     H     0.45591     0.25853     0.73282     0.146605
H536     H     0.54409     0.74147     0.26718     0.146605
H537     H     0.45591     0.74147     0.76718     0.146605
H538     H     0.54409     0.25853     0.23282     0.146605
H539     H     0.54409     0.25853     0.76718     0.146605
H540     H     0.45591     0.74147     0.23282     0.146605
H541     H     0.04409     0.24147     0.23282     0.146605
H542     H     0.95591     0.75853     0.76718     0.146605
H543     H     0.95591     0.75853     0.23282     0.146605
H544     H     0.04409     0.24147     0.76718     0.146605
H545     H     0.90132     0.25697     0.17598     0.150898
H546     H     0.09868     0.74303     0.82402     0.150898
H547     H     0.09868     0.74303     0.17598     0.150898
H548     H     0.90132     0.25697     0.82402     0.150898
H549     H     0.59868     0.75697     0.82402     0.150898
H550     H     0.40132     0.24303     0.17598     0.150898
H551     H     0.40132     0.24303     0.82402     0.150898
H552     H     0.59868     0.75697     0.17598     0.150898
H553     H     0.40132     0.75697     0.67598     0.150898
H554     H     0.59868     0.24303     0.32402     0.150898
H555     H     0.59868     0.24303     0.67598     0.150898
H556     H     0.40132     0.75697     0.32402     0.150898
H557     H     0.09868     0.25697     0.32402     0.150898
H558     H     0.90132     0.74303     0.67598     0.150898
H559     H     0.90132     0.74303     0.32402     0.150898
H560     H     0.09868     0.25697     0.67598     0.150898
H561     H     0.87729     0.27361     0.14150     0.138048
H562     H     0.12271     0.72639     0.85850     0.138048
H563     H     0.12271     0.72639     0.14150     0.138048
H564     H     0.87729     0.27361     0.85850     0.138048
H565     H     0.62271     0.77361     0.85850     0.138048
H566     H     0.37729     0.22639     0.14150     0.138048
H567     H     0.37729     0.22639     0.85850     0.138048
H568     H     0.62271     0.77361     0.14150     0.138048
H569     H     0.37729     0.77361     0.64150     0.138048
H570     H     0.62271     0.22639     0.35850     0.138048
H571     H     0.62271     0.22639     0.64150     0.138048
H572     H     0.37729     0.77361     0.35850     0.138048
H573     H     0.12271     0.27361     0.35850     0.138048
H574     H     0.87729     0.72639     0.64150     0.138048
H575     H     0.87729     0.72639     0.35850     0.138048
H576     H     0.12271     0.27361     0.64150     0.138048
H577     H     0.95641     0.28782     0.10498     0.167257
H578     H     0.04359     0.71218     0.89502     0.167257
H579     H     0.04359     0.71218     0.10498     0.167257
H580     H     0.95641     0.28782     0.89502     0.167257
H581     H     0.54359     0.78782     0.89502     0.167257
H582     H     0.45641     0.21218     0.10498     0.167257
H583     H     0.45641     0.21218     0.89502     0.167257
H584     H     0.54359     0.78782     0.10498     0.167257
H585     H     0.45641     0.78782     0.60498     0.167257
H586     H     0.54359     0.21218     0.39502     0.167257
H587     H     0.54359     0.21218     0.60498     0.167257
H588     H     0.45641     0.78782     0.39502     0.167257
H589     H     0.04359     0.28782     0.39502     0.167257
H590     H     0.95641     0.71218     0.60498     0.167257
H591     H     0.95641     0.71218     0.39502     0.167257
H592     H     0.04359     0.28782     0.60498     0.167257
H593     H     0.45428     0.68026     0.16532     0.149381
H594     H     0.54572     0.31974     0.83468     0.149381
H595     H     0.54572     0.31974     0.16532     0.149381
H596     H     0.45428     0.68026     0.83468     0.149381
H597     H     0.04572     0.18026     0.83468     0.149381
H598     H     0.95428     0.81974     0.16532     0.149381
H599     H     0.95428     0.81974     0.83468     0.149381
H600     H     0.04572     0.18026     0.16532     0.149381
H601     H     0.95428     0.18026     0.66532     0.149381
H602     H     0.04572     0.81974     0.33468     0.149381
H603     H     0.04572     0.81974     0.66532     0.149381
H604     H     0.95428     0.18026     0.33468     0.149381
H605     H     0.54572     0.68026     0.33468     0.149381
H606     H     0.45428     0.31974     0.66532     0.149381
H607     H     0.45428     0.31974     0.33468     0.149381
H608     H     0.54572     0.68026     0.66532     0.149381
H609     H     0.42086     0.66749     0.12935     0.138545
H610     H     0.57914     0.33251     0.87065     0.138545
H611     H     0.57914     0.33251     0.12935     0.138545
H612     H     0.42086     0.66749     0.87065     0.138545
H613     H     0.07914     0.16749     0.87065     0.138545
H614     H     0.92086     0.83251     0.12935     0.138545
H615     H     0.92086     0.83251     0.87065     0.138545
H616     H     0.07914     0.16749     0.12935     0.138545
H617     H     0.92086     0.16749     0.62935     0.138545
H618     H     0.07914     0.83251     0.37065     0.138545
H619     H     0.07914     0.83251     0.62935     0.138545
H620     H     0.92086     0.16749     0.37065     0.138545
H621     H     0.57914     0.66749     0.37065     0.138545
H622     H     0.42086     0.33251     0.62935     0.138545
H623     H     0.42086     0.33251     0.37065     0.138545
H624     H     0.57914     0.66749     0.62935     0.138545
H625     H     0.35985     0.69666     0.13620     0.167235
H626     H     0.64015     0.30334     0.86380     0.167235
H627     H     0.64015     0.30334     0.13620     0.167235
H628     H     0.35985     0.69666     0.86380     0.167235
H629     H     0.14015     0.19666     0.86380     0.167235
H630     H     0.85985     0.80334     0.13620     0.167235
H631     H     0.85985     0.80334     0.86380     0.167235
H632     H     0.14015     0.19666     0.13620     0.167235
H633     H     0.85985     0.19666     0.63620     0.167235
H634     H     0.14015     0.80334     0.36380     0.167235
H635     H     0.14015     0.80334     0.63620     0.167235
H636     H     0.85985     0.19666     0.36380     0.167235
H637     H     0.64015     0.69666     0.36380     0.167235
H638     H     0.35985     0.30334     0.63620     0.167235
H639     H     0.35985     0.30334     0.36380     0.167235
H640     H     0.64015     0.69666     0.63620     0.167235
