#======================================================================

# CRYSTAL DATA

#----------------------------------------------------------------------

data_VESTA_phase_1


_chemical_name_common                  ''
_cell_length_a                         20.30490
_cell_length_b                         20.30490
_cell_length_c                         49.64100
_cell_angle_alpha                      90
_cell_angle_beta                       90
_cell_angle_gamma                      90
_space_group_name_H-M_alt              'P 1'
_space_group_IT_number                 1

loop_
_space_group_symop_operation_xyz
   'x, y, z'

loop_
   _atom_site_label
   _atom_site_occupancy
   _atom_site_fract_x
   _atom_site_fract_y
   _atom_site_fract_z
   _atom_site_adp_type
   _atom_site_B_iso_or_equiv
   _atom_site_type_symbol
   Cd1        1.0     0.203188      0.796812      0.125000     Biso  1.000000 Cd
   Cd1        1.0     0.796812      0.203188      0.625000     Biso  1.000000 Cd
   Cd1        1.0     0.203188      0.203188      0.375000     Biso  1.000000 Cd
   Cd1        1.0     0.796812      0.796812      0.875000     Biso  1.000000 Cd
   Cd2        1.0     0.308910      0.870500      0.018104     Biso  1.000000 Cd
   Cd2        1.0     0.691090      0.129500      0.518104     Biso  1.000000 Cd
   Cd2        1.0     0.129500      0.308910      0.268104     Biso  1.000000 Cd
   Cd2        1.0     0.870500      0.691090      0.768104     Biso  1.000000 Cd
   Cd2        1.0     0.691090      0.870500      0.981896     Biso  1.000000 Cd
   Cd2        1.0     0.308910      0.129500      0.481896     Biso  1.000000 Cd
   Cd2        1.0     0.870500      0.308910      0.731896     Biso  1.000000 Cd
   Cd2        1.0     0.129500      0.691090      0.231896     Biso  1.000000 Cd
   Cl1        1.0     0.519450      0.964200      0.209630     Biso  1.000000 Cl
   Cl1        1.0     0.480550      0.035800      0.709630     Biso  1.000000 Cl
   Cl1        1.0     0.035800      0.519450      0.459630     Biso  1.000000 Cl
   Cl1        1.0     0.964200      0.480550      0.959630     Biso  1.000000 Cl
   Cl1        1.0     0.480550      0.964200      0.790370     Biso  1.000000 Cl
   Cl1        1.0     0.519450      0.035800      0.290370     Biso  1.000000 Cl
   Cl1        1.0     0.964200      0.519450      0.540370     Biso  1.000000 Cl
   Cl1        1.0     0.035800      0.480550      0.040370     Biso  1.000000 Cl
   Cl2        1.0     0.877780      0.004880      0.050380     Biso  1.000000 Cl
   Cl2        1.0     0.122220      0.995120      0.550380     Biso  1.000000 Cl
   Cl2        1.0     0.995120      0.877780      0.300380     Biso  1.000000 Cl
   Cl2        1.0     0.004880      0.122220      0.800380     Biso  1.000000 Cl
   Cl2        1.0     0.122220      0.004880      0.949620     Biso  1.000000 Cl
   Cl2        1.0     0.877780      0.995120      0.449620     Biso  1.000000 Cl
   Cl2        1.0     0.004880      0.877780      0.699620     Biso  1.000000 Cl
   Cl2        1.0     0.995120      0.122220      0.199620     Biso  1.000000 Cl
   Cl3        1.0     0.283800      0.045800      0.864840     Biso  1.000000 Cl
   Cl3        1.0     0.716200      0.954200      0.364840     Biso  1.000000 Cl
   Cl3        1.0     0.954200      0.283800      0.114840     Biso  1.000000 Cl
   Cl3        1.0     0.045800      0.716200      0.614840     Biso  1.000000 Cl
   Cl3        1.0     0.716200      0.045800      0.135160     Biso  1.000000 Cl
   Cl3        1.0     0.283800      0.954200      0.635160     Biso  1.000000 Cl
   Cl3        1.0     0.045800      0.283800      0.885160     Biso  1.000000 Cl
   Cl3        1.0     0.954200      0.716200      0.385160     Biso  1.000000 Cl
   Cl4        1.0     0.720960      0.909190      0.773410     Biso  1.000000 Cl
   Cl4        1.0     0.279040      0.090810      0.273410     Biso  1.000000 Cl
   Cl4        1.0     0.090810      0.720960      0.023410     Biso  1.000000 Cl
   Cl4        1.0     0.909190      0.279040      0.523410     Biso  1.000000 Cl
   Cl4        1.0     0.279040      0.909190      0.226590     Biso  1.000000 Cl
   Cl4        1.0     0.720960      0.090810      0.726590     Biso  1.000000 Cl
   Cl4        1.0     0.909190      0.720960      0.976590     Biso  1.000000 Cl
   Cl4        1.0     0.090810      0.279040      0.476590     Biso  1.000000 Cl
   O1         1.0     0.666500      0.749600      0.086230     Biso  1.000000 O
   O1         1.0     0.333500      0.250400      0.586230     Biso  1.000000 O
   O1         1.0     0.250400      0.666500      0.336230     Biso  1.000000 O
   O1         1.0     0.749600      0.333500      0.836230     Biso  1.000000 O
   O1         1.0     0.333500      0.749600      0.913770     Biso  1.000000 O
   O1         1.0     0.666500      0.250400      0.413770     Biso  1.000000 O
   O1         1.0     0.749600      0.666500      0.663770     Biso  1.000000 O
   O1         1.0     0.250400      0.333500      0.163770     Biso  1.000000 O
   H1B        1.0     0.707000      0.755500      0.088600     Biso  1.000000 H
   H1B        1.0     0.293000      0.244500      0.588600     Biso  1.000000 H
   H1B        1.0     0.244500      0.707000      0.338600     Biso  1.000000 H
   H1B        1.0     0.755500      0.293000      0.838600     Biso  1.000000 H
   H1B        1.0     0.293000      0.755500      0.911400     Biso  1.000000 H
   H1B        1.0     0.707000      0.244500      0.411400     Biso  1.000000 H
   H1B        1.0     0.755500      0.707000      0.661400     Biso  1.000000 H
   H1B        1.0     0.244500      0.293000      0.161400     Biso  1.000000 H
   O2         1.0     0.743300      0.743300      0.159400     Biso  1.000000 O
   O2         1.0     0.256700      0.256700      0.659400     Biso  1.000000 O
   O2         1.0     0.256700      0.743300      0.409400     Biso  1.000000 O
   O2         1.0     0.743300      0.256700      0.909400     Biso  1.000000 O
   O2         1.0     0.256700      0.743300      0.840600     Biso  1.000000 O
   O2         1.0     0.743300      0.256700      0.340600     Biso  1.000000 O
   O2         1.0     0.743300      0.743300      0.590600     Biso  1.000000 O
   O2         1.0     0.256700      0.256700      0.090600     Biso  1.000000 O
   H2B        1.0     0.702600      0.748800      0.157300     Biso  1.000000 H
   H2B        1.0     0.297400      0.251200      0.657300     Biso  1.000000 H
   H2B        1.0     0.251200      0.702600      0.407300     Biso  1.000000 H
   H2B        1.0     0.748800      0.297400      0.907300     Biso  1.000000 H
   H2B        1.0     0.297400      0.748800      0.842700     Biso  1.000000 H
   H2B        1.0     0.702600      0.251200      0.342700     Biso  1.000000 H
   H2B        1.0     0.748800      0.702600      0.592700     Biso  1.000000 H
   H2B        1.0     0.251200      0.297400      0.092700     Biso  1.000000 H
   O3         1.0     0.666700      0.036200      0.909470     Biso  1.000000 O
   O3         1.0     0.333300      0.963800      0.409470     Biso  1.000000 O
   O3         1.0     0.963800      0.666700      0.159470     Biso  1.000000 O
   O3         1.0     0.036200      0.333300      0.659470     Biso  1.000000 O
   O3         1.0     0.333300      0.036200      0.090530     Biso  1.000000 O
   O3         1.0     0.666700      0.963800      0.590530     Biso  1.000000 O
   O3         1.0     0.036200      0.666700      0.840530     Biso  1.000000 O
   O3         1.0     0.963800      0.333300      0.340530     Biso  1.000000 O
   H3A        1.0     0.676300      0.018100      0.924200     Biso  1.000000 H
   H3A        1.0     0.323700      0.981900      0.424200     Biso  1.000000 H
   H3A        1.0     0.981900      0.676300      0.174200     Biso  1.000000 H
   H3A        1.0     0.018100      0.323700      0.674200     Biso  1.000000 H
   H3A        1.0     0.323700      0.018100      0.075800     Biso  1.000000 H
   H3A        1.0     0.676300      0.981900      0.575800     Biso  1.000000 H
   H3A        1.0     0.018100      0.676300      0.825800     Biso  1.000000 H
   H3A        1.0     0.981900      0.323700      0.325800     Biso  1.000000 H
   O4         1.0     0.604400      0.189000      0.878970     Biso  1.000000 O
   O4         1.0     0.395600      0.811000      0.378970     Biso  1.000000 O
   O4         1.0     0.811000      0.604400      0.128970     Biso  1.000000 O
   O4         1.0     0.189000      0.395600      0.628970     Biso  1.000000 O
   O4         1.0     0.395600      0.189000      0.121030     Biso  1.000000 O
   O4         1.0     0.604400      0.811000      0.621030     Biso  1.000000 O
   O4         1.0     0.189000      0.604400      0.871030     Biso  1.000000 O
   O4         1.0     0.811000      0.395600      0.371030     Biso  1.000000 O
   H4B        1.0     0.584300      0.166000      0.890400     Biso  1.000000 H
   H4B        1.0     0.415700      0.834000      0.390400     Biso  1.000000 H
   H4B        1.0     0.834000      0.584300      0.140400     Biso  1.000000 H
   H4B        1.0     0.166000      0.415700      0.640400     Biso  1.000000 H
   H4B        1.0     0.415700      0.166000      0.109600     Biso  1.000000 H
   H4B        1.0     0.584300      0.834000      0.609600     Biso  1.000000 H
   H4B        1.0     0.166000      0.584300      0.859600     Biso  1.000000 H
   H4B        1.0     0.834000      0.415700      0.359600     Biso  1.000000 H
   O5         1.0     0.474400      0.781900      0.045910     Biso  1.000000 O
   O5         1.0     0.525600      0.218100      0.545910     Biso  1.000000 O
   O5         1.0     0.218100      0.474400      0.295910     Biso  1.000000 O
   O5         1.0     0.781900      0.525600      0.795910     Biso  1.000000 O
   O5         1.0     0.525600      0.781900      0.954090     Biso  1.000000 O
   O5         1.0     0.474400      0.218100      0.454090     Biso  1.000000 O
   O5         1.0     0.781900      0.474400      0.704090     Biso  1.000000 O
   O5         1.0     0.218100      0.525600      0.204090     Biso  1.000000 O
   O6         1.0     0.401100      0.858800      0.045190     Biso  1.000000 O
   O6         1.0     0.598900      0.141200      0.545190     Biso  1.000000 O
   O6         1.0     0.141200      0.401100      0.295190     Biso  1.000000 O
   O6         1.0     0.858800      0.598900      0.795190     Biso  1.000000 O
   O6         1.0     0.598900      0.858800      0.954810     Biso  1.000000 O
   O6         1.0     0.401100      0.141200      0.454810     Biso  1.000000 O
   O6         1.0     0.858800      0.401100      0.704810     Biso  1.000000 O
   O6         1.0     0.141200      0.598900      0.204810     Biso  1.000000 O
   O7         1.0     0.395900      0.779900      0.016350     Biso  1.000000 O
   O7         1.0     0.604100      0.220100      0.516350     Biso  1.000000 O
   O7         1.0     0.220100      0.395900      0.266350     Biso  1.000000 O
   O7         1.0     0.779900      0.604100      0.766350     Biso  1.000000 O
   O7         1.0     0.604100      0.779900      0.983650     Biso  1.000000 O
   O7         1.0     0.395900      0.220100      0.483650     Biso  1.000000 O
   O7         1.0     0.779900      0.395900      0.733650     Biso  1.000000 O
   O7         1.0     0.220100      0.604100      0.233650     Biso  1.000000 O
   O8         1.0     0.272600      0.754300      0.050610     Biso  1.000000 O
   O8         1.0     0.727400      0.245700      0.550610     Biso  1.000000 O
   O8         1.0     0.245700      0.272600      0.300610     Biso  1.000000 O
   O8         1.0     0.754300      0.727400      0.800610     Biso  1.000000 O
   O8         1.0     0.727400      0.754300      0.949390     Biso  1.000000 O
   O8         1.0     0.272600      0.245700      0.449390     Biso  1.000000 O
   O8         1.0     0.754300      0.272600      0.699390     Biso  1.000000 O
   O8         1.0     0.245700      0.727400      0.199390     Biso  1.000000 O
   O9         1.0     0.235900      0.850200      0.052500     Biso  1.000000 O
   O9         1.0     0.764100      0.149800      0.552500     Biso  1.000000 O
   O9         1.0     0.149800      0.235900      0.302500     Biso  1.000000 O
   O9         1.0     0.850200      0.764100      0.802500     Biso  1.000000 O
   O9         1.0     0.764100      0.850200      0.947500     Biso  1.000000 O
   O9         1.0     0.235900      0.149800      0.447500     Biso  1.000000 O
   O9         1.0     0.850200      0.235900      0.697500     Biso  1.000000 O
   O9         1.0     0.149800      0.764100      0.197500     Biso  1.000000 O
   O10        1.0     0.195300      0.775300      0.078470     Biso  1.000000 O
   O10        1.0     0.804700      0.224700      0.578470     Biso  1.000000 O
   O10        1.0     0.224700      0.195300      0.328470     Biso  1.000000 O
   O10        1.0     0.775300      0.804700      0.828470     Biso  1.000000 O
   O10        1.0     0.804700      0.775300      0.921530     Biso  1.000000 O
   O10        1.0     0.195300      0.224700      0.421530     Biso  1.000000 O
   O10        1.0     0.775300      0.195300      0.671530     Biso  1.000000 O
   O10        1.0     0.224700      0.804700      0.171530     Biso  1.000000 O
   O11        1.0     0.224700      0.048000      0.037470     Biso  1.000000 O
   O11        1.0     0.775300      0.952000      0.537470     Biso  1.000000 O
   O11        1.0     0.952000      0.224700      0.287470     Biso  1.000000 O
   O11        1.0     0.048000      0.775300      0.787470     Biso  1.000000 O
   O11        1.0     0.775300      0.048000      0.962530     Biso  1.000000 O
   O11        1.0     0.224700      0.952000      0.462530     Biso  1.000000 O
   O11        1.0     0.048000      0.224700      0.712530     Biso  1.000000 O
   O11        1.0     0.952000      0.775300      0.212530     Biso  1.000000 O
   O12        1.0     0.230200      0.963100      0.010900     Biso  1.000000 O
   O12        1.0     0.769800      0.036900      0.510900     Biso  1.000000 O
   O12        1.0     0.036900      0.230200      0.260900     Biso  1.000000 O
   O12        1.0     0.963100      0.769800      0.760900     Biso  1.000000 O
   O12        1.0     0.769800      0.963100      0.989100     Biso  1.000000 O
   O12        1.0     0.230200      0.036900      0.489100     Biso  1.000000 O
   O12        1.0     0.963100      0.230200      0.739100     Biso  1.000000 O
   O12        1.0     0.036900      0.769800      0.239100     Biso  1.000000 O
   O13        1.0     0.302900      0.974900      0.042180     Biso  1.000000 O
   O13        1.0     0.697100      0.025100      0.542180     Biso  1.000000 O
   O13        1.0     0.025100      0.302900      0.292180     Biso  1.000000 O
   O13        1.0     0.974900      0.697100      0.792180     Biso  1.000000 O
   O13        1.0     0.697100      0.974900      0.957820     Biso  1.000000 O
   O13        1.0     0.302900      0.025100      0.457820     Biso  1.000000 O
   O13        1.0     0.974900      0.302900      0.707820     Biso  1.000000 O
   O13        1.0     0.025100      0.697100      0.207820     Biso  1.000000 O
   N1         1.0     0.316830      0.798900      0.123190     Biso  1.000000 N
   N1         1.0     0.683170      0.201100      0.623190     Biso  1.000000 N
   N1         1.0     0.201100      0.316830      0.373190     Biso  1.000000 N
   N1         1.0     0.798900      0.683170      0.873190     Biso  1.000000 N
   N1         1.0     0.683170      0.798900      0.876810     Biso  1.000000 N
   N1         1.0     0.316830      0.201100      0.376810     Biso  1.000000 N
   N1         1.0     0.798900      0.316830      0.626810     Biso  1.000000 N
   N1         1.0     0.201100      0.683170      0.126810     Biso  1.000000 N
   N2         1.0     0.089300      0.802900      0.126640     Biso  1.000000 N
   N2         1.0     0.910700      0.197100      0.626640     Biso  1.000000 N
   N2         1.0     0.197100      0.089300      0.376640     Biso  1.000000 N
   N2         1.0     0.802900      0.910700      0.876640     Biso  1.000000 N
   N2         1.0     0.910700      0.802900      0.873360     Biso  1.000000 N
   N2         1.0     0.089300      0.197100      0.373360     Biso  1.000000 N
   N2         1.0     0.802900      0.089300      0.623360     Biso  1.000000 N
   N2         1.0     0.197100      0.910700      0.123360     Biso  1.000000 N
   N3         1.0     0.374200      0.919000      0.984970     Biso  1.000000 N
   N3         1.0     0.625800      0.081000      0.484970     Biso  1.000000 N
   N3         1.0     0.081000      0.374200      0.234970     Biso  1.000000 N
   N3         1.0     0.919000      0.625800      0.734970     Biso  1.000000 N
   N3         1.0     0.625800      0.919000      0.015030     Biso  1.000000 N
   N3         1.0     0.374200      0.081000      0.515030     Biso  1.000000 N
   N3         1.0     0.919000      0.374200      0.765030     Biso  1.000000 N
   N3         1.0     0.081000      0.625800      0.265030     Biso  1.000000 N
   N4         1.0     0.807300      0.246500      0.760200     Biso  1.000000 N
   N4         1.0     0.192700      0.753500      0.260200     Biso  1.000000 N
   N4         1.0     0.753500      0.807300      0.010200     Biso  1.000000 N
   N4         1.0     0.246500      0.192700      0.510200     Biso  1.000000 N
   N4         1.0     0.192700      0.246500      0.239800     Biso  1.000000 N
   N4         1.0     0.807300      0.753500      0.739800     Biso  1.000000 N
   N4         1.0     0.246500      0.807300      0.989800     Biso  1.000000 N
   N4         1.0     0.753500      0.192700      0.489800     Biso  1.000000 N
   N5         1.0     0.424700      0.807600      0.035800     Biso  1.000000 N
   N5         1.0     0.575300      0.192400      0.535800     Biso  1.000000 N
   N5         1.0     0.192400      0.424700      0.285800     Biso  1.000000 N
   N5         1.0     0.807600      0.575300      0.785800     Biso  1.000000 N
   N5         1.0     0.575300      0.807600      0.964200     Biso  1.000000 N
   N5         1.0     0.424700      0.192400      0.464200     Biso  1.000000 N
   N5         1.0     0.807600      0.424700      0.714200     Biso  1.000000 N
   N5         1.0     0.192400      0.575300      0.214200     Biso  1.000000 N
   N6         1.0     0.232200      0.794700      0.059850     Biso  1.000000 N
   N6         1.0     0.767800      0.205300      0.559850     Biso  1.000000 N
   N6         1.0     0.205300      0.232200      0.309850     Biso  1.000000 N
   N6         1.0     0.794700      0.767800      0.809850     Biso  1.000000 N
   N6         1.0     0.767800      0.794700      0.940150     Biso  1.000000 N
   N6         1.0     0.232200      0.205300      0.440150     Biso  1.000000 N
   N6         1.0     0.794700      0.232200      0.690150     Biso  1.000000 N
   N6         1.0     0.205300      0.767800      0.190150     Biso  1.000000 N
   N7         1.0     0.251400      0.996100      0.030310     Biso  1.000000 N
   N7         1.0     0.748600      0.003900      0.530310     Biso  1.000000 N
   N7         1.0     0.003900      0.251400      0.280310     Biso  1.000000 N
   N7         1.0     0.996100      0.748600      0.780310     Biso  1.000000 N
   N7         1.0     0.748600      0.996100      0.969690     Biso  1.000000 N
   N7         1.0     0.251400      0.003900      0.469690     Biso  1.000000 N
   N7         1.0     0.996100      0.251400      0.719690     Biso  1.000000 N
   N7         1.0     0.003900      0.748600      0.219690     Biso  1.000000 N
   C1         1.0     0.352200      0.764100      0.141620     Biso  1.000000 C
   C1         1.0     0.647800      0.235900      0.641620     Biso  1.000000 C
   C1         1.0     0.235900      0.352200      0.391620     Biso  1.000000 C
   C1         1.0     0.764100      0.647800      0.891620     Biso  1.000000 C
   C1         1.0     0.647800      0.764100      0.858380     Biso  1.000000 C
   C1         1.0     0.352200      0.235900      0.358380     Biso  1.000000 C
   C1         1.0     0.764100      0.352200      0.608380     Biso  1.000000 C
   C1         1.0     0.235900      0.647800      0.108380     Biso  1.000000 C
   H1A        1.0     0.329300      0.736400      0.153900     Biso  1.000000 H
   H1A        1.0     0.670700      0.263600      0.653900     Biso  1.000000 H
   H1A        1.0     0.263600      0.329300      0.403900     Biso  1.000000 H
   H1A        1.0     0.736400      0.670700      0.903900     Biso  1.000000 H
   H1A        1.0     0.670700      0.736400      0.846100     Biso  1.000000 H
   H1A        1.0     0.329300      0.263600      0.346100     Biso  1.000000 H
   H1A        1.0     0.736400      0.329300      0.596100     Biso  1.000000 H
   H1A        1.0     0.263600      0.670700      0.096100     Biso  1.000000 H
   C2         1.0     0.420100      0.767500      0.143260     Biso  1.000000 C
   C2         1.0     0.579900      0.232500      0.643260     Biso  1.000000 C
   C2         1.0     0.232500      0.420100      0.393260     Biso  1.000000 C
   C2         1.0     0.767500      0.579900      0.893260     Biso  1.000000 C
   C2         1.0     0.579900      0.767500      0.856740     Biso  1.000000 C
   C2         1.0     0.420100      0.232500      0.356740     Biso  1.000000 C
   C2         1.0     0.767500      0.420100      0.606740     Biso  1.000000 C
   C2         1.0     0.232500      0.579900      0.106740     Biso  1.000000 C
   H2A        1.0     0.442800      0.742700      0.156500     Biso  1.000000 H
   H2A        1.0     0.557200      0.257300      0.656500     Biso  1.000000 H
   H2A        1.0     0.257300      0.442800      0.406500     Biso  1.000000 H
   H2A        1.0     0.742700      0.557200      0.906500     Biso  1.000000 H
   H2A        1.0     0.557200      0.742700      0.843500     Biso  1.000000 H
   H2A        1.0     0.442800      0.257300      0.343500     Biso  1.000000 H
   H2A        1.0     0.742700      0.442800      0.593500     Biso  1.000000 H
   H2A        1.0     0.257300      0.557200      0.093500     Biso  1.000000 H
   C3         1.0     0.455000      0.807000      0.125540     Biso  1.000000 C
   C3         1.0     0.545000      0.193000      0.625540     Biso  1.000000 C
   C3         1.0     0.193000      0.455000      0.375540     Biso  1.000000 C
   C3         1.0     0.807000      0.545000      0.875540     Biso  1.000000 C
   C3         1.0     0.545000      0.807000      0.874460     Biso  1.000000 C
   C3         1.0     0.455000      0.193000      0.374460     Biso  1.000000 C
   C3         1.0     0.807000      0.455000      0.624460     Biso  1.000000 C
   C3         1.0     0.193000      0.545000      0.124460     Biso  1.000000 C
   C4         1.0     0.419000      0.844400      0.107810     Biso  1.000000 C
   C4         1.0     0.581000      0.155600      0.607810     Biso  1.000000 C
   C4         1.0     0.155600      0.419000      0.357810     Biso  1.000000 C
   C4         1.0     0.844400      0.581000      0.857810     Biso  1.000000 C
   C4         1.0     0.581000      0.844400      0.892190     Biso  1.000000 C
   C4         1.0     0.419000      0.155600      0.392190     Biso  1.000000 C
   C4         1.0     0.844400      0.419000      0.642190     Biso  1.000000 C
   C4         1.0     0.155600      0.581000      0.142190     Biso  1.000000 C
   H4A        1.0     0.440900      0.873700      0.095900     Biso  1.000000 H
   H4A        1.0     0.559100      0.126300      0.595900     Biso  1.000000 H
   H4A        1.0     0.126300      0.440900      0.345900     Biso  1.000000 H
   H4A        1.0     0.873700      0.559100      0.845900     Biso  1.000000 H
   H4A        1.0     0.559100      0.873700      0.904100     Biso  1.000000 H
   H4A        1.0     0.440900      0.126300      0.404100     Biso  1.000000 H
   H4A        1.0     0.873700      0.440900      0.654100     Biso  1.000000 H
   H4A        1.0     0.126300      0.559100      0.154100     Biso  1.000000 H
   C5         1.0     0.350000      0.839700      0.107190     Biso  1.000000 C
   C5         1.0     0.650000      0.160300      0.607190     Biso  1.000000 C
   C5         1.0     0.160300      0.350000      0.357190     Biso  1.000000 C
   C5         1.0     0.839700      0.650000      0.857190     Biso  1.000000 C
   C5         1.0     0.650000      0.839700      0.892810     Biso  1.000000 C
   C5         1.0     0.350000      0.160300      0.392810     Biso  1.000000 C
   C5         1.0     0.839700      0.350000      0.642810     Biso  1.000000 C
   C5         1.0     0.160300      0.650000      0.142810     Biso  1.000000 C
   H5A        1.0     0.326100      0.866600      0.094900     Biso  1.000000 H
   H5A        1.0     0.673900      0.133400      0.594900     Biso  1.000000 H
   H5A        1.0     0.133400      0.326100      0.344900     Biso  1.000000 H
   H5A        1.0     0.866600      0.673900      0.844900     Biso  1.000000 H
   H5A        1.0     0.673900      0.866600      0.905100     Biso  1.000000 H
   H5A        1.0     0.326100      0.133400      0.405100     Biso  1.000000 H
   H5A        1.0     0.866600      0.326100      0.655100     Biso  1.000000 H
   H5A        1.0     0.133400      0.673900      0.155100     Biso  1.000000 H
   C6         1.0     0.527500      0.810700      0.126590     Biso  1.000000 C
   C6         1.0     0.472500      0.189300      0.626590     Biso  1.000000 C
   C6         1.0     0.189300      0.527500      0.376590     Biso  1.000000 C
   C6         1.0     0.810700      0.472500      0.876590     Biso  1.000000 C
   C6         1.0     0.472500      0.810700      0.873410     Biso  1.000000 C
   C6         1.0     0.527500      0.189300      0.373410     Biso  1.000000 C
   C6         1.0     0.810700      0.527500      0.623410     Biso  1.000000 C
   C6         1.0     0.189300      0.472500      0.123410     Biso  1.000000 C
   C7         1.0     0.562600      0.778700      0.106590     Biso  1.000000 C
   C7         1.0     0.437400      0.221300      0.606590     Biso  1.000000 C
   C7         1.0     0.221300      0.562600      0.356590     Biso  1.000000 C
   C7         1.0     0.778700      0.437400      0.856590     Biso  1.000000 C
   C7         1.0     0.437400      0.778700      0.893410     Biso  1.000000 C
   C7         1.0     0.562600      0.221300      0.393410     Biso  1.000000 C
   C7         1.0     0.778700      0.562600      0.643410     Biso  1.000000 C
   C7         1.0     0.221300      0.437400      0.143410     Biso  1.000000 C
   H7A        1.0     0.539400      0.754700      0.093200     Biso  1.000000 H
   H7A        1.0     0.460600      0.245300      0.593200     Biso  1.000000 H
   H7A        1.0     0.245300      0.539400      0.343200     Biso  1.000000 H
   H7A        1.0     0.754700      0.460600      0.843200     Biso  1.000000 H
   H7A        1.0     0.460600      0.754700      0.906800     Biso  1.000000 H
   H7A        1.0     0.539400      0.245300      0.406800     Biso  1.000000 H
   H7A        1.0     0.754700      0.539400      0.656800     Biso  1.000000 H
   H7A        1.0     0.245300      0.460600      0.156800     Biso  1.000000 H
   C8         1.0     0.632600      0.780800      0.105610     Biso  1.000000 C
   C8         1.0     0.367400      0.219200      0.605610     Biso  1.000000 C
   C8         1.0     0.219200      0.632600      0.355610     Biso  1.000000 C
   C8         1.0     0.780800      0.367400      0.855610     Biso  1.000000 C
   C8         1.0     0.367400      0.780800      0.894390     Biso  1.000000 C
   C8         1.0     0.632600      0.219200      0.394390     Biso  1.000000 C
   C8         1.0     0.780800      0.632600      0.644390     Biso  1.000000 C
   C8         1.0     0.219200      0.367400      0.144390     Biso  1.000000 C
   C9         1.0     0.667400      0.816500      0.124810     Biso  1.000000 C
   C9         1.0     0.332600      0.183500      0.624810     Biso  1.000000 C
   C9         1.0     0.183500      0.667400      0.374810     Biso  1.000000 C
   C9         1.0     0.816500      0.332600      0.874810     Biso  1.000000 C
   C9         1.0     0.332600      0.816500      0.875190     Biso  1.000000 C
   C9         1.0     0.667400      0.183500      0.375190     Biso  1.000000 C
   C9         1.0     0.816500      0.667400      0.625190     Biso  1.000000 C
   C9         1.0     0.183500      0.332600      0.125190     Biso  1.000000 C
   C10        1.0     0.631000      0.851500      0.145580     Biso  1.000000 C
   C10        1.0     0.369000      0.148500      0.645580     Biso  1.000000 C
   C10        1.0     0.148500      0.631000      0.395580     Biso  1.000000 C
   C10        1.0     0.851500      0.369000      0.895580     Biso  1.000000 C
   C10        1.0     0.369000      0.851500      0.854420     Biso  1.000000 C
   C10        1.0     0.631000      0.148500      0.354420     Biso  1.000000 C
   C10        1.0     0.851500      0.631000      0.604420     Biso  1.000000 C
   C10        1.0     0.148500      0.369000      0.104420     Biso  1.000000 C
   C11        1.0     0.562200      0.849200      0.146090     Biso  1.000000 C
   C11        1.0     0.437800      0.150800      0.646090     Biso  1.000000 C
   C11        1.0     0.150800      0.562200      0.396090     Biso  1.000000 C
   C11        1.0     0.849200      0.437800      0.896090     Biso  1.000000 C
   C11        1.0     0.437800      0.849200      0.853910     Biso  1.000000 C
   C11        1.0     0.562200      0.150800      0.353910     Biso  1.000000 C
   C11        1.0     0.849200      0.562200      0.603910     Biso  1.000000 C
   C11        1.0     0.150800      0.437800      0.103910     Biso  1.000000 C
   C12        1.0     0.527300      0.884800      0.166240     Biso  1.000000 C
   C12        1.0     0.472700      0.115200      0.666240     Biso  1.000000 C
   C12        1.0     0.115200      0.527300      0.416240     Biso  1.000000 C
   C12        1.0     0.884800      0.472700      0.916240     Biso  1.000000 C
   C12        1.0     0.472700      0.884800      0.833760     Biso  1.000000 C
   C12        1.0     0.527300      0.115200      0.333760     Biso  1.000000 C
   C12        1.0     0.884800      0.527300      0.583760     Biso  1.000000 C
   C12        1.0     0.115200      0.472700      0.083760     Biso  1.000000 C
   H12A       1.0     0.480600      0.883700      0.166700     Biso  1.000000 H
   H12A       1.0     0.519400      0.116300      0.666700     Biso  1.000000 H
   H12A       1.0     0.116300      0.480600      0.416700     Biso  1.000000 H
   H12A       1.0     0.883700      0.519400      0.916700     Biso  1.000000 H
   H12A       1.0     0.519400      0.883700      0.833300     Biso  1.000000 H
   H12A       1.0     0.480600      0.116300      0.333300     Biso  1.000000 H
   H12A       1.0     0.883700      0.480600      0.583300     Biso  1.000000 H
   H12A       1.0     0.116300      0.519400      0.083300     Biso  1.000000 H
   C13        1.0     0.561100      0.920100      0.184600     Biso  1.000000 C
   C13        1.0     0.438900      0.079900      0.684600     Biso  1.000000 C
   C13        1.0     0.079900      0.561100      0.434600     Biso  1.000000 C
   C13        1.0     0.920100      0.438900      0.934600     Biso  1.000000 C
   C13        1.0     0.438900      0.920100      0.815400     Biso  1.000000 C
   C13        1.0     0.561100      0.079900      0.315400     Biso  1.000000 C
   C13        1.0     0.920100      0.561100      0.565400     Biso  1.000000 C
   C13        1.0     0.079900      0.438900      0.065400     Biso  1.000000 C
   C14        1.0     0.630800      0.921300      0.184900     Biso  1.000000 C
   C14        1.0     0.369200      0.078700      0.684900     Biso  1.000000 C
   C14        1.0     0.078700      0.630800      0.434900     Biso  1.000000 C
   C14        1.0     0.921300      0.369200      0.934900     Biso  1.000000 C
   C14        1.0     0.369200      0.921300      0.815100     Biso  1.000000 C
   C14        1.0     0.630800      0.078700      0.315100     Biso  1.000000 C
   C14        1.0     0.921300      0.630800      0.565100     Biso  1.000000 C
   C14        1.0     0.078700      0.369200      0.065100     Biso  1.000000 C
   H14A       1.0     0.653900      0.944500      0.198600     Biso  1.000000 H
   H14A       1.0     0.346100      0.055500      0.698600     Biso  1.000000 H
   H14A       1.0     0.055500      0.653900      0.448600     Biso  1.000000 H
   H14A       1.0     0.944500      0.346100      0.948600     Biso  1.000000 H
   H14A       1.0     0.346100      0.944500      0.801400     Biso  1.000000 H
   H14A       1.0     0.653900      0.055500      0.301400     Biso  1.000000 H
   H14A       1.0     0.944500      0.653900      0.551400     Biso  1.000000 H
   H14A       1.0     0.055500      0.346100      0.051400     Biso  1.000000 H
   C15        1.0     0.663600      0.888700      0.165310     Biso  1.000000 C
   C15        1.0     0.336400      0.111300      0.665310     Biso  1.000000 C
   C15        1.0     0.111300      0.663600      0.415310     Biso  1.000000 C
   C15        1.0     0.888700      0.336400      0.915310     Biso  1.000000 C
   C15        1.0     0.336400      0.888700      0.834690     Biso  1.000000 C
   C15        1.0     0.663600      0.111300      0.334690     Biso  1.000000 C
   C15        1.0     0.888700      0.663600      0.584690     Biso  1.000000 C
   C15        1.0     0.111300      0.336400      0.084690     Biso  1.000000 C
   H15A       1.0     0.710400      0.891000      0.164900     Biso  1.000000 H
   H15A       1.0     0.289600      0.109000      0.664900     Biso  1.000000 H
   H15A       1.0     0.109000      0.710400      0.414900     Biso  1.000000 H
   H15A       1.0     0.891000      0.289600      0.914900     Biso  1.000000 H
   H15A       1.0     0.289600      0.891000      0.835100     Biso  1.000000 H
   H15A       1.0     0.710400      0.109000      0.335100     Biso  1.000000 H
   H15A       1.0     0.891000      0.710400      0.585100     Biso  1.000000 H
   H15A       1.0     0.109000      0.289600      0.085100     Biso  1.000000 H
   C16        1.0     0.740400      0.818900      0.124340     Biso  1.000000 C
   C16        1.0     0.259600      0.181100      0.624340     Biso  1.000000 C
   C16        1.0     0.181100      0.740400      0.374340     Biso  1.000000 C
   C16        1.0     0.818900      0.259600      0.874340     Biso  1.000000 C
   C16        1.0     0.259600      0.818900      0.875660     Biso  1.000000 C
   C16        1.0     0.740400      0.181100      0.375660     Biso  1.000000 C
   C16        1.0     0.818900      0.740400      0.625660     Biso  1.000000 C
   C16        1.0     0.181100      0.259600      0.125660     Biso  1.000000 C
   C17        1.0     0.773900      0.861400      0.105890     Biso  1.000000 C
   C17        1.0     0.226100      0.138600      0.605890     Biso  1.000000 C
   C17        1.0     0.138600      0.773900      0.355890     Biso  1.000000 C
   C17        1.0     0.861400      0.226100      0.855890     Biso  1.000000 C
   C17        1.0     0.226100      0.861400      0.894110     Biso  1.000000 C
   C17        1.0     0.773900      0.138600      0.394110     Biso  1.000000 C
   C17        1.0     0.861400      0.773900      0.644110     Biso  1.000000 C
   C17        1.0     0.138600      0.226100      0.144110     Biso  1.000000 C
   C18        1.0     0.740000      0.900800      0.087500     Biso  1.000000 C
   C18        1.0     0.260000      0.099200      0.587500     Biso  1.000000 C
   C18        1.0     0.099200      0.740000      0.337500     Biso  1.000000 C
   C18        1.0     0.900800      0.260000      0.837500     Biso  1.000000 C
   C18        1.0     0.260000      0.900800      0.912500     Biso  1.000000 C
   C18        1.0     0.740000      0.099200      0.412500     Biso  1.000000 C
   C18        1.0     0.900800      0.740000      0.662500     Biso  1.000000 C
   C18        1.0     0.099200      0.260000      0.162500     Biso  1.000000 C
   H18A       1.0     0.693300      0.897600      0.086900     Biso  1.000000 H
   H18A       1.0     0.306700      0.102400      0.586900     Biso  1.000000 H
   H18A       1.0     0.102400      0.693300      0.336900     Biso  1.000000 H
   H18A       1.0     0.897600      0.306700      0.836900     Biso  1.000000 H
   H18A       1.0     0.306700      0.897600      0.913100     Biso  1.000000 H
   H18A       1.0     0.693300      0.102400      0.413100     Biso  1.000000 H
   H18A       1.0     0.897600      0.693300      0.663100     Biso  1.000000 H
   H18A       1.0     0.102400      0.306700      0.163100     Biso  1.000000 H
   C19        1.0     0.769900      0.943300      0.070490     Biso  1.000000 C
   C19        1.0     0.230100      0.056700      0.570490     Biso  1.000000 C
   C19        1.0     0.056700      0.769900      0.320490     Biso  1.000000 C
   C19        1.0     0.943300      0.230100      0.820490     Biso  1.000000 C
   C19        1.0     0.230100      0.943300      0.929510     Biso  1.000000 C
   C19        1.0     0.769900      0.056700      0.429510     Biso  1.000000 C
   C19        1.0     0.943300      0.769900      0.679510     Biso  1.000000 C
   C19        1.0     0.056700      0.230100      0.179510     Biso  1.000000 C
   H19A       1.0     0.745100      0.967900      0.057800     Biso  1.000000 H
   H19A       1.0     0.254900      0.032100      0.557800     Biso  1.000000 H
   H19A       1.0     0.032100      0.745100      0.307800     Biso  1.000000 H
   H19A       1.0     0.967900      0.254900      0.807800     Biso  1.000000 H
   H19A       1.0     0.254900      0.967900      0.942200     Biso  1.000000 H
   H19A       1.0     0.745100      0.032100      0.442200     Biso  1.000000 H
   H19A       1.0     0.967900      0.745100      0.692200     Biso  1.000000 H
   H19A       1.0     0.032100      0.254900      0.192200     Biso  1.000000 H
   C20        1.0     0.838700      0.950200      0.072050     Biso  1.000000 C
   C20        1.0     0.161300      0.049800      0.572050     Biso  1.000000 C
   C20        1.0     0.049800      0.838700      0.322050     Biso  1.000000 C
   C20        1.0     0.950200      0.161300      0.822050     Biso  1.000000 C
   C20        1.0     0.161300      0.950200      0.927950     Biso  1.000000 C
   C20        1.0     0.838700      0.049800      0.427950     Biso  1.000000 C
   C20        1.0     0.950200      0.838700      0.677950     Biso  1.000000 C
   C20        1.0     0.049800      0.161300      0.177950     Biso  1.000000 C
   C21        1.0     0.874700      0.912600      0.089660     Biso  1.000000 C
   C21        1.0     0.125300      0.087400      0.589660     Biso  1.000000 C
   C21        1.0     0.087400      0.874700      0.339660     Biso  1.000000 C
   C21        1.0     0.912600      0.125300      0.839660     Biso  1.000000 C
   C21        1.0     0.125300      0.912600      0.910340     Biso  1.000000 C
   C21        1.0     0.874700      0.087400      0.410340     Biso  1.000000 C
   C21        1.0     0.912600      0.874700      0.660340     Biso  1.000000 C
   C21        1.0     0.087400      0.125300      0.160340     Biso  1.000000 C
   H21A       1.0     0.921100      0.918100      0.090500     Biso  1.000000 H
   H21A       1.0     0.078900      0.081900      0.590500     Biso  1.000000 H
   H21A       1.0     0.081900      0.921100      0.340500     Biso  1.000000 H
   H21A       1.0     0.918100      0.078900      0.840500     Biso  1.000000 H
   H21A       1.0     0.078900      0.918100      0.909500     Biso  1.000000 H
   H21A       1.0     0.921100      0.081900      0.409500     Biso  1.000000 H
   H21A       1.0     0.918100      0.921100      0.659500     Biso  1.000000 H
   H21A       1.0     0.081900      0.078900      0.159500     Biso  1.000000 H
   C22        1.0     0.844400      0.866300      0.106450     Biso  1.000000 C
   C22        1.0     0.155600      0.133700      0.606450     Biso  1.000000 C
   C22        1.0     0.133700      0.844400      0.356450     Biso  1.000000 C
   C22        1.0     0.866300      0.155600      0.856450     Biso  1.000000 C
   C22        1.0     0.155600      0.866300      0.893550     Biso  1.000000 C
   C22        1.0     0.844400      0.133700      0.393550     Biso  1.000000 C
   C22        1.0     0.866300      0.844400      0.643550     Biso  1.000000 C
   C22        1.0     0.133700      0.155600      0.143550     Biso  1.000000 C
   C23        1.0     0.879500      0.825100      0.124840     Biso  1.000000 C
   C23        1.0     0.120500      0.174900      0.624840     Biso  1.000000 C
   C23        1.0     0.174900      0.879500      0.374840     Biso  1.000000 C
   C23        1.0     0.825100      0.120500      0.874840     Biso  1.000000 C
   C23        1.0     0.120500      0.825100      0.875160     Biso  1.000000 C
   C23        1.0     0.879500      0.174900      0.375160     Biso  1.000000 C
   C23        1.0     0.825100      0.879500      0.625160     Biso  1.000000 C
   C23        1.0     0.174900      0.120500      0.125160     Biso  1.000000 C
   C24        1.0     0.846800      0.785500      0.141930     Biso  1.000000 C
   C24        1.0     0.153200      0.214500      0.641930     Biso  1.000000 C
   C24        1.0     0.214500      0.846800      0.391930     Biso  1.000000 C
   C24        1.0     0.785500      0.153200      0.891930     Biso  1.000000 C
   C24        1.0     0.153200      0.785500      0.858070     Biso  1.000000 C
   C24        1.0     0.846800      0.214500      0.358070     Biso  1.000000 C
   C24        1.0     0.785500      0.846800      0.608070     Biso  1.000000 C
   C24        1.0     0.214500      0.153200      0.108070     Biso  1.000000 C
   H24A       1.0     0.871200      0.757900      0.153700     Biso  1.000000 H
   H24A       1.0     0.128800      0.242100      0.653700     Biso  1.000000 H
   H24A       1.0     0.242100      0.871200      0.403700     Biso  1.000000 H
   H24A       1.0     0.757900      0.128800      0.903700     Biso  1.000000 H
   H24A       1.0     0.128800      0.757900      0.846300     Biso  1.000000 H
   H24A       1.0     0.871200      0.242100      0.346300     Biso  1.000000 H
   H24A       1.0     0.757900      0.871200      0.596300     Biso  1.000000 H
   H24A       1.0     0.242100      0.128800      0.096300     Biso  1.000000 H
   C25        1.0     0.776300      0.783500      0.142830     Biso  1.000000 C
   C25        1.0     0.223700      0.216500      0.642830     Biso  1.000000 C
   C25        1.0     0.216500      0.776300      0.392830     Biso  1.000000 C
   C25        1.0     0.783500      0.223700      0.892830     Biso  1.000000 C
   C25        1.0     0.223700      0.783500      0.857170     Biso  1.000000 C
   C25        1.0     0.776300      0.216500      0.357170     Biso  1.000000 C
   C25        1.0     0.783500      0.776300      0.607170     Biso  1.000000 C
   C25        1.0     0.216500      0.223700      0.107170     Biso  1.000000 C
   C26        1.0     0.054500      0.813400      0.148830     Biso  1.000000 C
   C26        1.0     0.945500      0.186600      0.648830     Biso  1.000000 C
   C26        1.0     0.186600      0.054500      0.398830     Biso  1.000000 C
   C26        1.0     0.813400      0.945500      0.898830     Biso  1.000000 C
   C26        1.0     0.945500      0.813400      0.851170     Biso  1.000000 C
   C26        1.0     0.054500      0.186600      0.351170     Biso  1.000000 C
   C26        1.0     0.813400      0.054500      0.601170     Biso  1.000000 C
   C26        1.0     0.186600      0.945500      0.101170     Biso  1.000000 C
   H26A       1.0     0.077200      0.814600      0.165600     Biso  1.000000 H
   H26A       1.0     0.922800      0.185400      0.665600     Biso  1.000000 H
   H26A       1.0     0.185400      0.077200      0.415600     Biso  1.000000 H
   H26A       1.0     0.814600      0.922800      0.915600     Biso  1.000000 H
   H26A       1.0     0.922800      0.814600      0.834400     Biso  1.000000 H
   H26A       1.0     0.077200      0.185400      0.334400     Biso  1.000000 H
   H26A       1.0     0.814600      0.077200      0.584400     Biso  1.000000 H
   H26A       1.0     0.185400      0.922800      0.084400     Biso  1.000000 H
   C27        1.0     0.987300      0.822900      0.149030     Biso  1.000000 C
   C27        1.0     0.012700      0.177100      0.649030     Biso  1.000000 C
   C27        1.0     0.177100      0.987300      0.399030     Biso  1.000000 C
   C27        1.0     0.822900      0.012700      0.899030     Biso  1.000000 C
   C27        1.0     0.012700      0.822900      0.850970     Biso  1.000000 C
   C27        1.0     0.987300      0.177100      0.350970     Biso  1.000000 C
   C27        1.0     0.822900      0.987300      0.600970     Biso  1.000000 C
   C27        1.0     0.177100      0.012700      0.100970     Biso  1.000000 C
   H27A       1.0     0.965100      0.830700      0.165600     Biso  1.000000 H
   H27A       1.0     0.034900      0.169300      0.665600     Biso  1.000000 H
   H27A       1.0     0.169300      0.965100      0.415600     Biso  1.000000 H
   H27A       1.0     0.830700      0.034900      0.915600     Biso  1.000000 H
   H27A       1.0     0.034900      0.830700      0.834400     Biso  1.000000 H
   H27A       1.0     0.965100      0.169300      0.334400     Biso  1.000000 H
   H27A       1.0     0.830700      0.965100      0.584400     Biso  1.000000 H
   H27A       1.0     0.169300      0.034900      0.084400     Biso  1.000000 H
   C28        1.0     0.952600      0.821000      0.125560     Biso  1.000000 C
   C28        1.0     0.047400      0.179000      0.625560     Biso  1.000000 C
   C28        1.0     0.179000      0.952600      0.375560     Biso  1.000000 C
   C28        1.0     0.821000      0.047400      0.875560     Biso  1.000000 C
   C28        1.0     0.047400      0.821000      0.874440     Biso  1.000000 C
   C28        1.0     0.952600      0.179000      0.374440     Biso  1.000000 C
   C28        1.0     0.821000      0.952600      0.624440     Biso  1.000000 C
   C28        1.0     0.179000      0.047400      0.124440     Biso  1.000000 C
   C29        1.0     0.989500      0.813400      0.101950     Biso  1.000000 C
   C29        1.0     0.010500      0.186600      0.601950     Biso  1.000000 C
   C29        1.0     0.186600      0.989500      0.351950     Biso  1.000000 C
   C29        1.0     0.813400      0.010500      0.851950     Biso  1.000000 C
   C29        1.0     0.010500      0.813400      0.898050     Biso  1.000000 C
   C29        1.0     0.989500      0.186600      0.398050     Biso  1.000000 C
   C29        1.0     0.813400      0.989500      0.648050     Biso  1.000000 C
   C29        1.0     0.186600      0.010500      0.148050     Biso  1.000000 C
   H29A       1.0     0.968300      0.814900      0.084900     Biso  1.000000 H
   H29A       1.0     0.031700      0.185100      0.584900     Biso  1.000000 H
   H29A       1.0     0.185100      0.968300      0.334900     Biso  1.000000 H
   H29A       1.0     0.814900      0.031700      0.834900     Biso  1.000000 H
   H29A       1.0     0.031700      0.814900      0.915100     Biso  1.000000 H
   H29A       1.0     0.968300      0.185100      0.415100     Biso  1.000000 H
   H29A       1.0     0.814900      0.968300      0.665100     Biso  1.000000 H
   H29A       1.0     0.185100      0.031700      0.165100     Biso  1.000000 H
   C30        1.0     0.056600      0.803700      0.103360     Biso  1.000000 C
   C30        1.0     0.943400      0.196300      0.603360     Biso  1.000000 C
   C30        1.0     0.196300      0.056600      0.353360     Biso  1.000000 C
   C30        1.0     0.803700      0.943400      0.853360     Biso  1.000000 C
   C30        1.0     0.943400      0.803700      0.896640     Biso  1.000000 C
   C30        1.0     0.056600      0.196300      0.396640     Biso  1.000000 C
   C30        1.0     0.803700      0.056600      0.646640     Biso  1.000000 C
   C30        1.0     0.196300      0.943400      0.146640     Biso  1.000000 C
   H30A       1.0     0.080500      0.797400      0.087100     Biso  1.000000 H
   H30A       1.0     0.919500      0.202600      0.587100     Biso  1.000000 H
   H30A       1.0     0.202600      0.080500      0.337100     Biso  1.000000 H
   H30A       1.0     0.797400      0.919500      0.837100     Biso  1.000000 H
   H30A       1.0     0.919500      0.797400      0.912900     Biso  1.000000 H
   H30A       1.0     0.080500      0.202600      0.412900     Biso  1.000000 H
   H30A       1.0     0.797400      0.080500      0.662900     Biso  1.000000 H
   H30A       1.0     0.202600      0.919500      0.162900     Biso  1.000000 H
   C31        1.0     0.393100      0.885800      0.964270     Biso  1.000000 C
   C31        1.0     0.606900      0.114200      0.464270     Biso  1.000000 C
   C31        1.0     0.114200      0.393100      0.214270     Biso  1.000000 C
   C31        1.0     0.885800      0.606900      0.714270     Biso  1.000000 C
   C31        1.0     0.606900      0.885800      0.035730     Biso  1.000000 C
   C31        1.0     0.393100      0.114200      0.535730     Biso  1.000000 C
   C31        1.0     0.885800      0.393100      0.785730     Biso  1.000000 C
   C31        1.0     0.114200      0.606900      0.285730     Biso  1.000000 C
   H31A       1.0     0.381100      0.840600      0.963300     Biso  1.000000 H
   H31A       1.0     0.618900      0.159400      0.463300     Biso  1.000000 H
   H31A       1.0     0.159400      0.381100      0.213300     Biso  1.000000 H
   H31A       1.0     0.840600      0.618900      0.713300     Biso  1.000000 H
   H31A       1.0     0.618900      0.840600      0.036700     Biso  1.000000 H
   H31A       1.0     0.381100      0.159400      0.536700     Biso  1.000000 H
   H31A       1.0     0.840600      0.381100      0.786700     Biso  1.000000 H
   H31A       1.0     0.159400      0.618900      0.286700     Biso  1.000000 H
   C32        1.0     0.429200      0.911300      0.943760     Biso  1.000000 C
   C32        1.0     0.570800      0.088700      0.443760     Biso  1.000000 C
   C32        1.0     0.088700      0.429200      0.193760     Biso  1.000000 C
   C32        1.0     0.911300      0.570800      0.693760     Biso  1.000000 C
   C32        1.0     0.570800      0.911300      0.056240     Biso  1.000000 C
   C32        1.0     0.429200      0.088700      0.556240     Biso  1.000000 C
   C32        1.0     0.911300      0.429200      0.806240     Biso  1.000000 C
   C32        1.0     0.088700      0.570800      0.306240     Biso  1.000000 C
   H32A       1.0     0.439700      0.884400      0.928700     Biso  1.000000 H
   H32A       1.0     0.560300      0.115600      0.428700     Biso  1.000000 H
   H32A       1.0     0.115600      0.439700      0.178700     Biso  1.000000 H
   H32A       1.0     0.884400      0.560300      0.678700     Biso  1.000000 H
   H32A       1.0     0.560300      0.884400      0.071300     Biso  1.000000 H
   H32A       1.0     0.439700      0.115600      0.571300     Biso  1.000000 H
   H32A       1.0     0.884400      0.439700      0.821300     Biso  1.000000 H
   H32A       1.0     0.115600      0.560300      0.321300     Biso  1.000000 H
   C33        1.0     0.450400      0.974500      0.944450     Biso  1.000000 C
   C33        1.0     0.549600      0.025500      0.444450     Biso  1.000000 C
   C33        1.0     0.025500      0.450400      0.194450     Biso  1.000000 C
   C33        1.0     0.974500      0.549600      0.694450     Biso  1.000000 C
   C33        1.0     0.549600      0.974500      0.055550     Biso  1.000000 C
   C33        1.0     0.450400      0.025500      0.555550     Biso  1.000000 C
   C33        1.0     0.974500      0.450400      0.805550     Biso  1.000000 C
   C33        1.0     0.025500      0.549600      0.305550     Biso  1.000000 C
   C34        1.0     0.432300      0.006700      0.966700     Biso  1.000000 C
   C34        1.0     0.567700      0.993300      0.466700     Biso  1.000000 C
   C34        1.0     0.993300      0.432300      0.216700     Biso  1.000000 C
   C34        1.0     0.006700      0.567700      0.716700     Biso  1.000000 C
   C34        1.0     0.567700      0.006700      0.033300     Biso  1.000000 C
   C34        1.0     0.432300      0.993300      0.533300     Biso  1.000000 C
   C34        1.0     0.006700      0.432300      0.783300     Biso  1.000000 C
   C34        1.0     0.993300      0.567700      0.283300     Biso  1.000000 C
   H34A       1.0     0.446000      0.051100      0.968900     Biso  1.000000 H
   H34A       1.0     0.554000      0.948900      0.468900     Biso  1.000000 H
   H34A       1.0     0.948900      0.446000      0.218900     Biso  1.000000 H
   H34A       1.0     0.051100      0.554000      0.718900     Biso  1.000000 H
   H34A       1.0     0.554000      0.051100      0.031100     Biso  1.000000 H
   H34A       1.0     0.446000      0.948900      0.531100     Biso  1.000000 H
   H34A       1.0     0.051100      0.446000      0.781100     Biso  1.000000 H
   H34A       1.0     0.948900      0.554000      0.281100     Biso  1.000000 H
   C35        1.0     0.395500      0.978900      0.986300     Biso  1.000000 C
   C35        1.0     0.604500      0.021100      0.486300     Biso  1.000000 C
   C35        1.0     0.021100      0.395500      0.236300     Biso  1.000000 C
   C35        1.0     0.978900      0.604500      0.736300     Biso  1.000000 C
   C35        1.0     0.604500      0.978900      0.013700     Biso  1.000000 C
   C35        1.0     0.395500      0.021100      0.513700     Biso  1.000000 C
   C35        1.0     0.978900      0.395500      0.763700     Biso  1.000000 C
   C35        1.0     0.021100      0.604500      0.263700     Biso  1.000000 C
   H35A       1.0     0.384800      0.004400      0.001700     Biso  1.000000 H
   H35A       1.0     0.615200      0.995600      0.501700     Biso  1.000000 H
   H35A       1.0     0.995600      0.384800      0.251700     Biso  1.000000 H
   H35A       1.0     0.004400      0.615200      0.751700     Biso  1.000000 H
   H35A       1.0     0.615200      0.004400      0.998300     Biso  1.000000 H
   H35A       1.0     0.384800      0.995600      0.498300     Biso  1.000000 H
   H35A       1.0     0.004400      0.384800      0.748300     Biso  1.000000 H
   H35A       1.0     0.995600      0.615200      0.248300     Biso  1.000000 H
   C36        1.0     0.492400      0.003800      0.922880     Biso  1.000000 C
   C36        1.0     0.507600      0.996200      0.422880     Biso  1.000000 C
   C36        1.0     0.996200      0.492400      0.172880     Biso  1.000000 C
   C36        1.0     0.003800      0.507600      0.672880     Biso  1.000000 C
   C36        1.0     0.507600      0.003800      0.077120     Biso  1.000000 C
   C36        1.0     0.492400      0.996200      0.577120     Biso  1.000000 C
   C36        1.0     0.003800      0.492400      0.827120     Biso  1.000000 C
   C36        1.0     0.996200      0.507600      0.327120     Biso  1.000000 C
   C37        1.0     0.463300      0.027400      0.898540     Biso  1.000000 C
   C37        1.0     0.536700      0.972600      0.398540     Biso  1.000000 C
   C37        1.0     0.972600      0.463300      0.148540     Biso  1.000000 C
   C37        1.0     0.027400      0.536700      0.648540     Biso  1.000000 C
   C37        1.0     0.536700      0.027400      0.101460     Biso  1.000000 C
   C37        1.0     0.463300      0.972600      0.601460     Biso  1.000000 C
   C37        1.0     0.027400      0.463300      0.851460     Biso  1.000000 C
   C37        1.0     0.972600      0.536700      0.351460     Biso  1.000000 C
   C38        1.0     0.393100      0.026900      0.894300     Biso  1.000000 C
   C38        1.0     0.606900      0.973100      0.394300     Biso  1.000000 C
   C38        1.0     0.973100      0.393100      0.144300     Biso  1.000000 C
   C38        1.0     0.026900      0.606900      0.644300     Biso  1.000000 C
   C38        1.0     0.606900      0.026900      0.105700     Biso  1.000000 C
   C38        1.0     0.393100      0.973100      0.605700     Biso  1.000000 C
   C38        1.0     0.026900      0.393100      0.855700     Biso  1.000000 C
   C38        1.0     0.973100      0.606900      0.355700     Biso  1.000000 C
   H38A       1.0     0.364400      0.012200      0.908200     Biso  1.000000 H
   H38A       1.0     0.635600      0.987800      0.408200     Biso  1.000000 H
   H38A       1.0     0.987800      0.364400      0.158200     Biso  1.000000 H
   H38A       1.0     0.012200      0.635600      0.658200     Biso  1.000000 H
   H38A       1.0     0.635600      0.012200      0.091800     Biso  1.000000 H
   H38A       1.0     0.364400      0.987800      0.591800     Biso  1.000000 H
   H38A       1.0     0.012200      0.364400      0.841800     Biso  1.000000 H
   H38A       1.0     0.987800      0.635600      0.341800     Biso  1.000000 H
   C39        1.0     0.368300      0.047700      0.870400     Biso  1.000000 C
   C39        1.0     0.631700      0.952300      0.370400     Biso  1.000000 C
   C39        1.0     0.952300      0.368300      0.120400     Biso  1.000000 C
   C39        1.0     0.047700      0.631700      0.620400     Biso  1.000000 C
   C39        1.0     0.631700      0.047700      0.129600     Biso  1.000000 C
   C39        1.0     0.368300      0.952300      0.629600     Biso  1.000000 C
   C39        1.0     0.047700      0.368300      0.879600     Biso  1.000000 C
   C39        1.0     0.952300      0.631700      0.379600     Biso  1.000000 C
   C40        1.0     0.410100      0.074700      0.849600     Biso  1.000000 C
   C40        1.0     0.589900      0.925300      0.349600     Biso  1.000000 C
   C40        1.0     0.925300      0.410100      0.099600     Biso  1.000000 C
   C40        1.0     0.074700      0.589900      0.599600     Biso  1.000000 C
   C40        1.0     0.589900      0.074700      0.150400     Biso  1.000000 C
   C40        1.0     0.410100      0.925300      0.650400     Biso  1.000000 C
   C40        1.0     0.074700      0.410100      0.900400     Biso  1.000000 C
   C40        1.0     0.925300      0.589900      0.400400     Biso  1.000000 C
   H40A       1.0     0.391500      0.092700      0.833700     Biso  1.000000 H
   H40A       1.0     0.608500      0.907300      0.333700     Biso  1.000000 H
   H40A       1.0     0.907300      0.391500      0.083700     Biso  1.000000 H
   H40A       1.0     0.092700      0.608500      0.583700     Biso  1.000000 H
   H40A       1.0     0.608500      0.092700      0.166300     Biso  1.000000 H
   H40A       1.0     0.391500      0.907300      0.666300     Biso  1.000000 H
   H40A       1.0     0.092700      0.391500      0.916300     Biso  1.000000 H
   H40A       1.0     0.907300      0.608500      0.416300     Biso  1.000000 H
   C41        1.0     0.476400      0.073900      0.853090     Biso  1.000000 C
   C41        1.0     0.523600      0.926100      0.353090     Biso  1.000000 C
   C41        1.0     0.926100      0.476400      0.103090     Biso  1.000000 C
   C41        1.0     0.073900      0.523600      0.603090     Biso  1.000000 C
   C41        1.0     0.523600      0.073900      0.146910     Biso  1.000000 C
   C41        1.0     0.476400      0.926100      0.646910     Biso  1.000000 C
   C41        1.0     0.073900      0.476400      0.896910     Biso  1.000000 C
   C41        1.0     0.926100      0.523600      0.396910     Biso  1.000000 C
   H41A       1.0     0.504300      0.088400      0.838900     Biso  1.000000 H
   H41A       1.0     0.495700      0.911600      0.338900     Biso  1.000000 H
   H41A       1.0     0.911600      0.504300      0.088900     Biso  1.000000 H
   H41A       1.0     0.088400      0.495700      0.588900     Biso  1.000000 H
   H41A       1.0     0.495700      0.088400      0.161100     Biso  1.000000 H
   H41A       1.0     0.504300      0.911600      0.661100     Biso  1.000000 H
   H41A       1.0     0.088400      0.504300      0.911100     Biso  1.000000 H
   H41A       1.0     0.911600      0.495700      0.411100     Biso  1.000000 H
   C42        1.0     0.504600      0.051800      0.877530     Biso  1.000000 C
   C42        1.0     0.495400      0.948200      0.377530     Biso  1.000000 C
   C42        1.0     0.948200      0.504600      0.127530     Biso  1.000000 C
   C42        1.0     0.051800      0.495400      0.627530     Biso  1.000000 C
   C42        1.0     0.495400      0.051800      0.122470     Biso  1.000000 C
   C42        1.0     0.504600      0.948200      0.622470     Biso  1.000000 C
   C42        1.0     0.051800      0.504600      0.872470     Biso  1.000000 C
   C42        1.0     0.948200      0.495400      0.372470     Biso  1.000000 C
   C43        1.0     0.573900      0.054800      0.881550     Biso  1.000000 C
   C43        1.0     0.426100      0.945200      0.381550     Biso  1.000000 C
   C43        1.0     0.945200      0.573900      0.131550     Biso  1.000000 C
   C43        1.0     0.054800      0.426100      0.631550     Biso  1.000000 C
   C43        1.0     0.426100      0.054800      0.118450     Biso  1.000000 C
   C43        1.0     0.573900      0.945200      0.618450     Biso  1.000000 C
   C43        1.0     0.054800      0.573900      0.868450     Biso  1.000000 C
   C43        1.0     0.945200      0.426100      0.368450     Biso  1.000000 C
   C44        1.0     0.599900      0.033200      0.905540     Biso  1.000000 C
   C44        1.0     0.400100      0.966800      0.405540     Biso  1.000000 C
   C44        1.0     0.966800      0.599900      0.155540     Biso  1.000000 C
   C44        1.0     0.033200      0.400100      0.655540     Biso  1.000000 C
   C44        1.0     0.400100      0.033200      0.094460     Biso  1.000000 C
   C44        1.0     0.599900      0.966800      0.594460     Biso  1.000000 C
   C44        1.0     0.033200      0.599900      0.844460     Biso  1.000000 C
   C44        1.0     0.966800      0.400100      0.344460     Biso  1.000000 C
   C45        1.0     0.557500      0.007100      0.925920     Biso  1.000000 C
   C45        1.0     0.442500      0.992900      0.425920     Biso  1.000000 C
   C45        1.0     0.992900      0.557500      0.175920     Biso  1.000000 C
   C45        1.0     0.007100      0.442500      0.675920     Biso  1.000000 C
   C45        1.0     0.442500      0.007100      0.074080     Biso  1.000000 C
   C45        1.0     0.557500      0.992900      0.574080     Biso  1.000000 C
   C45        1.0     0.007100      0.557500      0.824080     Biso  1.000000 C
   C45        1.0     0.992900      0.442500      0.324080     Biso  1.000000 C
   H45A       1.0     0.576500      0.991600      0.942200     Biso  1.000000 H
   H45A       1.0     0.423500      0.008400      0.442200     Biso  1.000000 H
   H45A       1.0     0.008400      0.576500      0.192200     Biso  1.000000 H
   H45A       1.0     0.991600      0.423500      0.692200     Biso  1.000000 H
   H45A       1.0     0.423500      0.991600      0.057800     Biso  1.000000 H
   H45A       1.0     0.576500      0.008400      0.557800     Biso  1.000000 H
   H45A       1.0     0.991600      0.576500      0.807800     Biso  1.000000 H
   H45A       1.0     0.008400      0.423500      0.307800     Biso  1.000000 H
   C46        1.0     0.616900      0.083400      0.860050     Biso  1.000000 C
   C46        1.0     0.383100      0.916600      0.360050     Biso  1.000000 C
   C46        1.0     0.916600      0.616900      0.110050     Biso  1.000000 C
   C46        1.0     0.083400      0.383100      0.610050     Biso  1.000000 C
   C46        1.0     0.383100      0.083400      0.139950     Biso  1.000000 C
   C46        1.0     0.616900      0.916600      0.639950     Biso  1.000000 C
   C46        1.0     0.083400      0.616900      0.889950     Biso  1.000000 C
   C46        1.0     0.916600      0.383100      0.389950     Biso  1.000000 C
   C47        1.0     0.643900      0.043300      0.839690     Biso  1.000000 C
   C47        1.0     0.356100      0.956700      0.339690     Biso  1.000000 C
   C47        1.0     0.956700      0.643900      0.089690     Biso  1.000000 C
   C47        1.0     0.043300      0.356100      0.589690     Biso  1.000000 C
   C47        1.0     0.356100      0.043300      0.160310     Biso  1.000000 C
   C47        1.0     0.643900      0.956700      0.660310     Biso  1.000000 C
   C47        1.0     0.043300      0.643900      0.910310     Biso  1.000000 C
   C47        1.0     0.956700      0.356100      0.410310     Biso  1.000000 C
   C48        1.0     0.634300      0.973500      0.840190     Biso  1.000000 C
   C48        1.0     0.365700      0.026500      0.340190     Biso  1.000000 C
   C48        1.0     0.026500      0.634300      0.090190     Biso  1.000000 C
   C48        1.0     0.973500      0.365700      0.590190     Biso  1.000000 C
   C48        1.0     0.365700      0.973500      0.159810     Biso  1.000000 C
   C48        1.0     0.634300      0.026500      0.659810     Biso  1.000000 C
   C48        1.0     0.973500      0.634300      0.909810     Biso  1.000000 C
   C48        1.0     0.026500      0.365700      0.409810     Biso  1.000000 C
   H48A       1.0     0.611000      0.954700      0.854900     Biso  1.000000 H
   H48A       1.0     0.389000      0.045300      0.354900     Biso  1.000000 H
   H48A       1.0     0.045300      0.611000      0.104900     Biso  1.000000 H
   H48A       1.0     0.954700      0.389000      0.604900     Biso  1.000000 H
   H48A       1.0     0.389000      0.954700      0.145100     Biso  1.000000 H
   H48A       1.0     0.611000      0.045300      0.645100     Biso  1.000000 H
   H48A       1.0     0.954700      0.611000      0.895100     Biso  1.000000 H
   H48A       1.0     0.045300      0.389000      0.395100     Biso  1.000000 H
   C49        1.0     0.657300      0.932700      0.820420     Biso  1.000000 C
   C49        1.0     0.342700      0.067300      0.320420     Biso  1.000000 C
   C49        1.0     0.067300      0.657300      0.070420     Biso  1.000000 C
   C49        1.0     0.932700      0.342700      0.570420     Biso  1.000000 C
   C49        1.0     0.342700      0.932700      0.179580     Biso  1.000000 C
   C49        1.0     0.657300      0.067300      0.679580     Biso  1.000000 C
   C49        1.0     0.932700      0.657300      0.929580     Biso  1.000000 C
   C49        1.0     0.067300      0.342700      0.429580     Biso  1.000000 C
   H49A       1.0     0.650600      0.886400      0.821400     Biso  1.000000 H
   H49A       1.0     0.349400      0.113600      0.321400     Biso  1.000000 H
   H49A       1.0     0.113600      0.650600      0.071400     Biso  1.000000 H
   H49A       1.0     0.886400      0.349400      0.571400     Biso  1.000000 H
   H49A       1.0     0.349400      0.886400      0.178600     Biso  1.000000 H
   H49A       1.0     0.650600      0.113600      0.678600     Biso  1.000000 H
   H49A       1.0     0.886400      0.650600      0.928600     Biso  1.000000 H
   H49A       1.0     0.113600      0.349400      0.428600     Biso  1.000000 H
   C50        1.0     0.691800      0.961500      0.798300     Biso  1.000000 C
   C50        1.0     0.308200      0.038500      0.298300     Biso  1.000000 C
   C50        1.0     0.038500      0.691800      0.048300     Biso  1.000000 C
   C50        1.0     0.961500      0.308200      0.548300     Biso  1.000000 C
   C50        1.0     0.308200      0.961500      0.201700     Biso  1.000000 C
   C50        1.0     0.691800      0.038500      0.701700     Biso  1.000000 C
   C50        1.0     0.961500      0.691800      0.951700     Biso  1.000000 C
   C50        1.0     0.038500      0.308200      0.451700     Biso  1.000000 C
   C51        1.0     0.702000      0.028300      0.797270     Biso  1.000000 C
   C51        1.0     0.298000      0.971700      0.297270     Biso  1.000000 C
   C51        1.0     0.971700      0.702000      0.047270     Biso  1.000000 C
   C51        1.0     0.028300      0.298000      0.547270     Biso  1.000000 C
   C51        1.0     0.298000      0.028300      0.202730     Biso  1.000000 C
   C51        1.0     0.702000      0.971700      0.702730     Biso  1.000000 C
   C51        1.0     0.028300      0.702000      0.952730     Biso  1.000000 C
   C51        1.0     0.971700      0.298000      0.452730     Biso  1.000000 C
   H51A       1.0     0.724500      0.046400      0.782200     Biso  1.000000 H
   H51A       1.0     0.275500      0.953600      0.282200     Biso  1.000000 H
   H51A       1.0     0.953600      0.724500      0.032200     Biso  1.000000 H
   H51A       1.0     0.046400      0.275500      0.532200     Biso  1.000000 H
   H51A       1.0     0.275500      0.046400      0.217800     Biso  1.000000 H
   H51A       1.0     0.724500      0.953600      0.717800     Biso  1.000000 H
   H51A       1.0     0.046400      0.724500      0.967800     Biso  1.000000 H
   H51A       1.0     0.953600      0.275500      0.467800     Biso  1.000000 H
   C52        1.0     0.680500      0.070000      0.817540     Biso  1.000000 C
   C52        1.0     0.319500      0.930000      0.317540     Biso  1.000000 C
   C52        1.0     0.930000      0.680500      0.067540     Biso  1.000000 C
   C52        1.0     0.070000      0.319500      0.567540     Biso  1.000000 C
   C52        1.0     0.319500      0.070000      0.182460     Biso  1.000000 C
   C52        1.0     0.680500      0.930000      0.682460     Biso  1.000000 C
   C52        1.0     0.070000      0.680500      0.932460     Biso  1.000000 C
   C52        1.0     0.930000      0.319500      0.432460     Biso  1.000000 C
   C53        1.0     0.692300      0.140500      0.818290     Biso  1.000000 C
   C53        1.0     0.307700      0.859500      0.318290     Biso  1.000000 C
   C53        1.0     0.859500      0.692300      0.068290     Biso  1.000000 C
   C53        1.0     0.140500      0.307700      0.568290     Biso  1.000000 C
   C53        1.0     0.307700      0.140500      0.181710     Biso  1.000000 C
   C53        1.0     0.692300      0.859500      0.681710     Biso  1.000000 C
   C53        1.0     0.140500      0.692300      0.931710     Biso  1.000000 C
   C53        1.0     0.859500      0.307700      0.431710     Biso  1.000000 C
   C54        1.0     0.668700      0.177600      0.838420     Biso  1.000000 C
   C54        1.0     0.331300      0.822400      0.338420     Biso  1.000000 C
   C54        1.0     0.822400      0.668700      0.088420     Biso  1.000000 C
   C54        1.0     0.177600      0.331300      0.588420     Biso  1.000000 C
   C54        1.0     0.331300      0.177600      0.161580     Biso  1.000000 C
   C54        1.0     0.668700      0.822400      0.661580     Biso  1.000000 C
   C54        1.0     0.177600      0.668700      0.911580     Biso  1.000000 C
   C54        1.0     0.822400      0.331300      0.411580     Biso  1.000000 C
   H54A       1.0     0.678200      0.223400      0.838600     Biso  1.000000 H
   H54A       1.0     0.321800      0.776600      0.338600     Biso  1.000000 H
   H54A       1.0     0.776600      0.678200      0.088600     Biso  1.000000 H
   H54A       1.0     0.223400      0.321800      0.588600     Biso  1.000000 H
   H54A       1.0     0.321800      0.223400      0.161400     Biso  1.000000 H
   H54A       1.0     0.678200      0.776600      0.661400     Biso  1.000000 H
   H54A       1.0     0.223400      0.678200      0.911400     Biso  1.000000 H
   H54A       1.0     0.776600      0.321800      0.411400     Biso  1.000000 H
   C55        1.0     0.629500      0.149800      0.859700     Biso  1.000000 C
   C55        1.0     0.370500      0.850200      0.359700     Biso  1.000000 C
   C55        1.0     0.850200      0.629500      0.109700     Biso  1.000000 C
   C55        1.0     0.149800      0.370500      0.609700     Biso  1.000000 C
   C55        1.0     0.370500      0.149800      0.140300     Biso  1.000000 C
   C55        1.0     0.629500      0.850200      0.640300     Biso  1.000000 C
   C55        1.0     0.149800      0.629500      0.890300     Biso  1.000000 C
   C55        1.0     0.850200      0.370500      0.390300     Biso  1.000000 C
   C56        1.0     0.831200      0.190800      0.771010     Biso  1.000000 C
   C56        1.0     0.168800      0.809200      0.271010     Biso  1.000000 C
   C56        1.0     0.809200      0.831200      0.021010     Biso  1.000000 C
   C56        1.0     0.190800      0.168800      0.521010     Biso  1.000000 C
   C56        1.0     0.168800      0.190800      0.228990     Biso  1.000000 C
   C56        1.0     0.831200      0.809200      0.728990     Biso  1.000000 C
   C56        1.0     0.190800      0.831200      0.978990     Biso  1.000000 C
   C56        1.0     0.809200      0.168800      0.478990     Biso  1.000000 C
   C57        1.0     0.793800      0.153400      0.789170     Biso  1.000000 C
   C57        1.0     0.206200      0.846600      0.289170     Biso  1.000000 C
   C57        1.0     0.846600      0.793800      0.039170     Biso  1.000000 C
   C57        1.0     0.153400      0.206200      0.539170     Biso  1.000000 C
   C57        1.0     0.206200      0.153400      0.210830     Biso  1.000000 C
   C57        1.0     0.793800      0.846600      0.710830     Biso  1.000000 C
   C57        1.0     0.153400      0.793800      0.960830     Biso  1.000000 C
   C57        1.0     0.846600      0.206200      0.460830     Biso  1.000000 C
   H57A       1.0     0.811600      0.113900      0.796400     Biso  1.000000 H
   H57A       1.0     0.188400      0.886100      0.296400     Biso  1.000000 H
   H57A       1.0     0.886100      0.811600      0.046400     Biso  1.000000 H
   H57A       1.0     0.113900      0.188400      0.546400     Biso  1.000000 H
   H57A       1.0     0.188400      0.113900      0.203600     Biso  1.000000 H
   H57A       1.0     0.811600      0.886100      0.703600     Biso  1.000000 H
   H57A       1.0     0.113900      0.811600      0.953600     Biso  1.000000 H
   H57A       1.0     0.886100      0.188400      0.453600     Biso  1.000000 H
   C58        1.0     0.731900      0.173000      0.796670     Biso  1.000000 C
   C58        1.0     0.268100      0.827000      0.296670     Biso  1.000000 C
   C58        1.0     0.827000      0.731900      0.046670     Biso  1.000000 C
   C58        1.0     0.173000      0.268100      0.546670     Biso  1.000000 C
   C58        1.0     0.268100      0.173000      0.203330     Biso  1.000000 C
   C58        1.0     0.731900      0.827000      0.703330     Biso  1.000000 C
   C58        1.0     0.173000      0.731900      0.953330     Biso  1.000000 C
   C58        1.0     0.827000      0.268100      0.453330     Biso  1.000000 C
   C59        1.0     0.707300      0.230800      0.784880     Biso  1.000000 C
   C59        1.0     0.292700      0.769200      0.284880     Biso  1.000000 C
   C59        1.0     0.769200      0.707300      0.034880     Biso  1.000000 C
   C59        1.0     0.230800      0.292700      0.534880     Biso  1.000000 C
   C59        1.0     0.292700      0.230800      0.215120     Biso  1.000000 C
   C59        1.0     0.707300      0.769200      0.715120     Biso  1.000000 C
   C59        1.0     0.230800      0.707300      0.965120     Biso  1.000000 C
   C59        1.0     0.769200      0.292700      0.465120     Biso  1.000000 C
   H59A       1.0     0.664300      0.245900      0.789300     Biso  1.000000 H
   H59A       1.0     0.335700      0.754100      0.289300     Biso  1.000000 H
   H59A       1.0     0.754100      0.664300      0.039300     Biso  1.000000 H
   H59A       1.0     0.245900      0.335700      0.539300     Biso  1.000000 H
   H59A       1.0     0.335700      0.245900      0.210700     Biso  1.000000 H
   H59A       1.0     0.664300      0.754100      0.710700     Biso  1.000000 H
   H59A       1.0     0.245900      0.664300      0.960700     Biso  1.000000 H
   H59A       1.0     0.754100      0.335700      0.460700     Biso  1.000000 H
   C60        1.0     0.745700      0.265600      0.766850     Biso  1.000000 C
   C60        1.0     0.254300      0.734400      0.266850     Biso  1.000000 C
   C60        1.0     0.734400      0.745700      0.016850     Biso  1.000000 C
   C60        1.0     0.265600      0.254300      0.516850     Biso  1.000000 C
   C60        1.0     0.254300      0.265600      0.233150     Biso  1.000000 C
   C60        1.0     0.745700      0.734400      0.733150     Biso  1.000000 C
   C60        1.0     0.265600      0.745700      0.983150     Biso  1.000000 C
   C60        1.0     0.734400      0.254300      0.483150     Biso  1.000000 C
   H60A       1.0     0.728100      0.304300      0.758900     Biso  1.000000 H
   H60A       1.0     0.271900      0.695700      0.258900     Biso  1.000000 H
   H60A       1.0     0.695700      0.728100      0.008900     Biso  1.000000 H
   H60A       1.0     0.304300      0.271900      0.508900     Biso  1.000000 H
   H60A       1.0     0.271900      0.304300      0.241100     Biso  1.000000 H
   H60A       1.0     0.728100      0.695700      0.741100     Biso  1.000000 H
   H60A       1.0     0.304300      0.728100      0.991100     Biso  1.000000 H
   H60A       1.0     0.695700      0.271900      0.491100     Biso  1.000000 H
   H61        1.0     0.176100      0.125780      0.516400     Biso  1.000000 H
   H61        1.0     0.823900      0.874220      0.016400     Biso  1.000000 H
   H61        1.0     0.874220      0.176100      0.766400     Biso  1.000000 H
   H61        1.0     0.125780      0.823900      0.266400     Biso  1.000000 H
   H61        1.0     0.823900      0.125780      0.483600     Biso  1.000000 H
   H61        1.0     0.176100      0.874220      0.983600     Biso  1.000000 H
   H61        1.0     0.125780      0.176100      0.233600     Biso  1.000000 H
   H61        1.0     0.874220      0.823900      0.733600     Biso  1.000000 H
