#======================================================================

# CRYSTAL DATA

#----------------------------------------------------------------------

data_VESTA_phase_1


_chemical_name_common                  ''
_cell_length_a                         28.24770
_cell_length_b                         28.24770
_cell_length_c                         28.24770
_cell_angle_alpha                      90
_cell_angle_beta                       90
_cell_angle_gamma                      90
_space_group_name_H-M_alt              'P 1'
_space_group_IT_number                 1

loop_
_space_group_symop_operation_xyz
   'x, y, z'

loop_
   _atom_site_label
   _atom_site_occupancy
   _atom_site_fract_x
   _atom_site_fract_y
   _atom_site_fract_z
   _atom_site_adp_type
   _atom_site_B_iso_or_equiv
   _atom_site_type_symbol
   O1         1.0     0.201730      0.177380      0.249790     Biso  1.000000 O
   O1         1.0     0.298270      0.822620      0.749790     Biso  1.000000 O
   O1         1.0     0.798270      0.677380      0.250210     Biso  1.000000 O
   O1         1.0     0.701730      0.322620      0.750210     Biso  1.000000 O
   O1         1.0     0.249790      0.201730      0.177380     Biso  1.000000 O
   O1         1.0     0.749790      0.298270      0.822620     Biso  1.000000 O
   O1         1.0     0.250210      0.798270      0.677380     Biso  1.000000 O
   O1         1.0     0.750210      0.701730      0.322620     Biso  1.000000 O
   O1         1.0     0.177380      0.249790      0.201730     Biso  1.000000 O
   O1         1.0     0.822620      0.749790      0.298270     Biso  1.000000 O
   O1         1.0     0.677380      0.250210      0.798270     Biso  1.000000 O
   O1         1.0     0.322620      0.750210      0.701730     Biso  1.000000 O
   O1         1.0     0.427380      0.451730      0.499790     Biso  1.000000 O
   O1         1.0     0.072620      0.548270      0.999790     Biso  1.000000 O
   O1         1.0     0.927380      0.048270      0.500210     Biso  1.000000 O
   O1         1.0     0.572620      0.951730      0.000210     Biso  1.000000 O
   O1         1.0     0.451730      0.499790      0.427380     Biso  1.000000 O
   O1         1.0     0.548270      0.999790      0.072620     Biso  1.000000 O
   O1         1.0     0.048270      0.500210      0.927380     Biso  1.000000 O
   O1         1.0     0.951730      0.000210      0.572620     Biso  1.000000 O
   O1         1.0     0.499790      0.427380      0.451730     Biso  1.000000 O
   O1         1.0     0.999790      0.072620      0.548270     Biso  1.000000 O
   O1         1.0     0.500210      0.927380      0.048270     Biso  1.000000 O
   O1         1.0     0.000210      0.572620      0.951730     Biso  1.000000 O
   O1         1.0     0.701730      0.677380      0.749790     Biso  1.000000 O
   O1         1.0     0.798270      0.322620      0.249790     Biso  1.000000 O
   O1         1.0     0.298270      0.177380      0.750210     Biso  1.000000 O
   O1         1.0     0.201730      0.822620      0.250210     Biso  1.000000 O
   O1         1.0     0.749790      0.701730      0.677380     Biso  1.000000 O
   O1         1.0     0.249790      0.798270      0.322620     Biso  1.000000 O
   O1         1.0     0.750210      0.298270      0.177380     Biso  1.000000 O
   O1         1.0     0.250210      0.201730      0.822620     Biso  1.000000 O
   O1         1.0     0.677380      0.749790      0.701730     Biso  1.000000 O
   O1         1.0     0.322620      0.249790      0.798270     Biso  1.000000 O
   O1         1.0     0.177380      0.750210      0.298270     Biso  1.000000 O
   O1         1.0     0.822620      0.250210      0.201730     Biso  1.000000 O
   O1         1.0     0.927380      0.951730      0.999790     Biso  1.000000 O
   O1         1.0     0.572620      0.048270      0.499790     Biso  1.000000 O
   O1         1.0     0.427380      0.548270      0.000210     Biso  1.000000 O
   O1         1.0     0.072620      0.451730      0.500210     Biso  1.000000 O
   O1         1.0     0.951730      0.999790      0.927380     Biso  1.000000 O
   O1         1.0     0.048270      0.499790      0.572620     Biso  1.000000 O
   O1         1.0     0.548270      0.000210      0.427380     Biso  1.000000 O
   O1         1.0     0.451730      0.500210      0.072620     Biso  1.000000 O
   O1         1.0     0.999790      0.927380      0.951730     Biso  1.000000 O
   O1         1.0     0.499790      0.572620      0.048270     Biso  1.000000 O
   O1         1.0     0.000210      0.427380      0.548270     Biso  1.000000 O
   O1         1.0     0.500210      0.072620      0.451730     Biso  1.000000 O
   B1         1.0     0.241020      0.170520      0.217310     Biso  1.000000 B
   B1         1.0     0.258980      0.829480      0.717310     Biso  1.000000 B
   B1         1.0     0.758980      0.670520      0.282690     Biso  1.000000 B
   B1         1.0     0.741020      0.329480      0.782690     Biso  1.000000 B
   B1         1.0     0.217310      0.241020      0.170520     Biso  1.000000 B
   B1         1.0     0.717310      0.258980      0.829480     Biso  1.000000 B
   B1         1.0     0.282690      0.758980      0.670520     Biso  1.000000 B
   B1         1.0     0.782690      0.741020      0.329480     Biso  1.000000 B
   B1         1.0     0.170520      0.217310      0.241020     Biso  1.000000 B
   B1         1.0     0.829480      0.717310      0.258980     Biso  1.000000 B
   B1         1.0     0.670520      0.282690      0.758980     Biso  1.000000 B
   B1         1.0     0.329480      0.782690      0.741020     Biso  1.000000 B
   B1         1.0     0.420520      0.491020      0.467310     Biso  1.000000 B
   B1         1.0     0.079480      0.508980      0.967310     Biso  1.000000 B
   B1         1.0     0.920520      0.008980      0.532690     Biso  1.000000 B
   B1         1.0     0.579480      0.991020      0.032690     Biso  1.000000 B
   B1         1.0     0.491020      0.467310      0.420520     Biso  1.000000 B
   B1         1.0     0.508980      0.967310      0.079480     Biso  1.000000 B
   B1         1.0     0.008980      0.532690      0.920520     Biso  1.000000 B
   B1         1.0     0.991020      0.032690      0.579480     Biso  1.000000 B
   B1         1.0     0.467310      0.420520      0.491020     Biso  1.000000 B
   B1         1.0     0.967310      0.079480      0.508980     Biso  1.000000 B
   B1         1.0     0.532690      0.920520      0.008980     Biso  1.000000 B
   B1         1.0     0.032690      0.579480      0.991020     Biso  1.000000 B
   B1         1.0     0.741020      0.670520      0.717310     Biso  1.000000 B
   B1         1.0     0.758980      0.329480      0.217310     Biso  1.000000 B
   B1         1.0     0.258980      0.170520      0.782690     Biso  1.000000 B
   B1         1.0     0.241020      0.829480      0.282690     Biso  1.000000 B
   B1         1.0     0.717310      0.741020      0.670520     Biso  1.000000 B
   B1         1.0     0.217310      0.758980      0.329480     Biso  1.000000 B
   B1         1.0     0.782690      0.258980      0.170520     Biso  1.000000 B
   B1         1.0     0.282690      0.241020      0.829480     Biso  1.000000 B
   B1         1.0     0.670520      0.717310      0.741020     Biso  1.000000 B
   B1         1.0     0.329480      0.217310      0.758980     Biso  1.000000 B
   B1         1.0     0.170520      0.782690      0.258980     Biso  1.000000 B
   B1         1.0     0.829480      0.282690      0.241020     Biso  1.000000 B
   B1         1.0     0.920520      0.991020      0.967310     Biso  1.000000 B
   B1         1.0     0.579480      0.008980      0.467310     Biso  1.000000 B
   B1         1.0     0.420520      0.508980      0.032690     Biso  1.000000 B
   B1         1.0     0.079480      0.491020      0.532690     Biso  1.000000 B
   B1         1.0     0.991020      0.967310      0.920520     Biso  1.000000 B
   B1         1.0     0.008980      0.467310      0.579480     Biso  1.000000 B
   B1         1.0     0.508980      0.032690      0.420520     Biso  1.000000 B
   B1         1.0     0.491020      0.532690      0.079480     Biso  1.000000 B
   B1         1.0     0.967310      0.920520      0.991020     Biso  1.000000 B
   B1         1.0     0.467310      0.579480      0.008980     Biso  1.000000 B
   B1         1.0     0.032690      0.420520      0.508980     Biso  1.000000 B
   B1         1.0     0.532690      0.079480      0.491020     Biso  1.000000 B
   C1         1.0     0.340700      0.079660      0.200010     Biso  1.000000 C
   C1         1.0     0.159300      0.920340      0.700010     Biso  1.000000 C
   C1         1.0     0.659300      0.579660      0.299990     Biso  1.000000 C
   C1         1.0     0.840700      0.420340      0.799990     Biso  1.000000 C
   C1         1.0     0.200010      0.340700      0.079660     Biso  1.000000 C
   C1         1.0     0.700010      0.159300      0.920340     Biso  1.000000 C
   C1         1.0     0.299990      0.659300      0.579660     Biso  1.000000 C
   C1         1.0     0.799990      0.840700      0.420340     Biso  1.000000 C
   C1         1.0     0.079660      0.200010      0.340700     Biso  1.000000 C
   C1         1.0     0.920340      0.700010      0.159300     Biso  1.000000 C
   C1         1.0     0.579660      0.299990      0.659300     Biso  1.000000 C
   C1         1.0     0.420340      0.799990      0.840700     Biso  1.000000 C
   C1         1.0     0.329660      0.590700      0.450010     Biso  1.000000 C
   C1         1.0     0.170340      0.409300      0.950010     Biso  1.000000 C
   C1         1.0     0.829660      0.909300      0.549990     Biso  1.000000 C
   C1         1.0     0.670340      0.090700      0.049990     Biso  1.000000 C
   C1         1.0     0.590700      0.450010      0.329660     Biso  1.000000 C
   C1         1.0     0.409300      0.950010      0.170340     Biso  1.000000 C
   C1         1.0     0.909300      0.549990      0.829660     Biso  1.000000 C
   C1         1.0     0.090700      0.049990      0.670340     Biso  1.000000 C
   C1         1.0     0.450010      0.329660      0.590700     Biso  1.000000 C
   C1         1.0     0.950010      0.170340      0.409300     Biso  1.000000 C
   C1         1.0     0.549990      0.829660      0.909300     Biso  1.000000 C
   C1         1.0     0.049990      0.670340      0.090700     Biso  1.000000 C
   C1         1.0     0.840700      0.579660      0.700010     Biso  1.000000 C
   C1         1.0     0.659300      0.420340      0.200010     Biso  1.000000 C
   C1         1.0     0.159300      0.079660      0.799990     Biso  1.000000 C
   C1         1.0     0.340700      0.920340      0.299990     Biso  1.000000 C
   C1         1.0     0.700010      0.840700      0.579660     Biso  1.000000 C
   C1         1.0     0.200010      0.659300      0.420340     Biso  1.000000 C
   C1         1.0     0.799990      0.159300      0.079660     Biso  1.000000 C
   C1         1.0     0.299990      0.340700      0.920340     Biso  1.000000 C
   C1         1.0     0.579660      0.700010      0.840700     Biso  1.000000 C
   C1         1.0     0.420340      0.200010      0.659300     Biso  1.000000 C
   C1         1.0     0.079660      0.799990      0.159300     Biso  1.000000 C
   C1         1.0     0.920340      0.299990      0.340700     Biso  1.000000 C
   C1         1.0     0.829660      0.090700      0.950010     Biso  1.000000 C
   C1         1.0     0.670340      0.909300      0.450010     Biso  1.000000 C
   C1         1.0     0.329660      0.409300      0.049990     Biso  1.000000 C
   C1         1.0     0.170340      0.590700      0.549990     Biso  1.000000 C
   C1         1.0     0.090700      0.950010      0.829660     Biso  1.000000 C
   C1         1.0     0.909300      0.450010      0.670340     Biso  1.000000 C
   C1         1.0     0.409300      0.049990      0.329660     Biso  1.000000 C
   C1         1.0     0.590700      0.549990      0.170340     Biso  1.000000 C
   C1         1.0     0.950010      0.829660      0.090700     Biso  1.000000 C
   C1         1.0     0.450010      0.670340      0.909300     Biso  1.000000 C
   C1         1.0     0.049990      0.329660      0.409300     Biso  1.000000 C
   C1         1.0     0.549990      0.170340      0.590700     Biso  1.000000 C
   C2         1.0     0.335910      0.051390      0.240070     Biso  1.000000 C
   C2         1.0     0.164090      0.948610      0.740070     Biso  1.000000 C
   C2         1.0     0.664090      0.551390      0.259930     Biso  1.000000 C
   C2         1.0     0.835910      0.448610      0.759930     Biso  1.000000 C
   C2         1.0     0.240070      0.335910      0.051390     Biso  1.000000 C
   C2         1.0     0.740070      0.164090      0.948610     Biso  1.000000 C
   C2         1.0     0.259930      0.664090      0.551390     Biso  1.000000 C
   C2         1.0     0.759930      0.835910      0.448610     Biso  1.000000 C
   C2         1.0     0.051390      0.240070      0.335910     Biso  1.000000 C
   C2         1.0     0.948610      0.740070      0.164090     Biso  1.000000 C
   C2         1.0     0.551390      0.259930      0.664090     Biso  1.000000 C
   C2         1.0     0.448610      0.759930      0.835910     Biso  1.000000 C
   C2         1.0     0.301390      0.585910      0.490070     Biso  1.000000 C
   C2         1.0     0.198610      0.414090      0.990070     Biso  1.000000 C
   C2         1.0     0.801390      0.914090      0.509930     Biso  1.000000 C
   C2         1.0     0.698610      0.085910      0.009930     Biso  1.000000 C
   C2         1.0     0.585910      0.490070      0.301390     Biso  1.000000 C
   C2         1.0     0.414090      0.990070      0.198610     Biso  1.000000 C
   C2         1.0     0.914090      0.509930      0.801390     Biso  1.000000 C
   C2         1.0     0.085910      0.009930      0.698610     Biso  1.000000 C
   C2         1.0     0.490070      0.301390      0.585910     Biso  1.000000 C
   C2         1.0     0.990070      0.198610      0.414090     Biso  1.000000 C
   C2         1.0     0.509930      0.801390      0.914090     Biso  1.000000 C
   C2         1.0     0.009930      0.698610      0.085910     Biso  1.000000 C
   C2         1.0     0.835910      0.551390      0.740070     Biso  1.000000 C
   C2         1.0     0.664090      0.448610      0.240070     Biso  1.000000 C
   C2         1.0     0.164090      0.051390      0.759930     Biso  1.000000 C
   C2         1.0     0.335910      0.948610      0.259930     Biso  1.000000 C
   C2         1.0     0.740070      0.835910      0.551390     Biso  1.000000 C
   C2         1.0     0.240070      0.664090      0.448610     Biso  1.000000 C
   C2         1.0     0.759930      0.164090      0.051390     Biso  1.000000 C
   C2         1.0     0.259930      0.335910      0.948610     Biso  1.000000 C
   C2         1.0     0.551390      0.740070      0.835910     Biso  1.000000 C
   C2         1.0     0.448610      0.240070      0.664090     Biso  1.000000 C
   C2         1.0     0.051390      0.759930      0.164090     Biso  1.000000 C
   C2         1.0     0.948610      0.259930      0.335910     Biso  1.000000 C
   C2         1.0     0.801390      0.085910      0.990070     Biso  1.000000 C
   C2         1.0     0.698610      0.914090      0.490070     Biso  1.000000 C
   C2         1.0     0.301390      0.414090      0.009930     Biso  1.000000 C
   C2         1.0     0.198610      0.585910      0.509930     Biso  1.000000 C
   C2         1.0     0.085910      0.990070      0.801390     Biso  1.000000 C
   C2         1.0     0.914090      0.490070      0.698610     Biso  1.000000 C
   C2         1.0     0.414090      0.009930      0.301390     Biso  1.000000 C
   C2         1.0     0.585910      0.509930      0.198610     Biso  1.000000 C
   C2         1.0     0.990070      0.801390      0.085910     Biso  1.000000 C
   C2         1.0     0.490070      0.698610      0.914090     Biso  1.000000 C
   C2         1.0     0.009930      0.301390      0.414090     Biso  1.000000 C
   C2         1.0     0.509930      0.198610      0.585910     Biso  1.000000 C
   C3         1.0     0.300210      0.061250      0.272530     Biso  1.000000 C
   C3         1.0     0.199790      0.938750      0.772530     Biso  1.000000 C
   C3         1.0     0.699790      0.561250      0.227470     Biso  1.000000 C
   C3         1.0     0.800210      0.438750      0.727470     Biso  1.000000 C
   C3         1.0     0.272530      0.300210      0.061250     Biso  1.000000 C
   C3         1.0     0.772530      0.199790      0.938750     Biso  1.000000 C
   C3         1.0     0.227470      0.699790      0.561250     Biso  1.000000 C
   C3         1.0     0.727470      0.800210      0.438750     Biso  1.000000 C
   C3         1.0     0.061250      0.272530      0.300210     Biso  1.000000 C
   C3         1.0     0.938750      0.772530      0.199790     Biso  1.000000 C
   C3         1.0     0.561250      0.227470      0.699790     Biso  1.000000 C
   C3         1.0     0.438750      0.727470      0.800210     Biso  1.000000 C
   C3         1.0     0.311250      0.550210      0.522530     Biso  1.000000 C
   C3         1.0     0.188750      0.449790      0.022530     Biso  1.000000 C
   C3         1.0     0.811250      0.949790      0.477470     Biso  1.000000 C
   C3         1.0     0.688750      0.050210      0.977470     Biso  1.000000 C
   C3         1.0     0.550210      0.522530      0.311250     Biso  1.000000 C
   C3         1.0     0.449790      0.022530      0.188750     Biso  1.000000 C
   C3         1.0     0.949790      0.477470      0.811250     Biso  1.000000 C
   C3         1.0     0.050210      0.977470      0.688750     Biso  1.000000 C
   C3         1.0     0.522530      0.311250      0.550210     Biso  1.000000 C
   C3         1.0     0.022530      0.188750      0.449790     Biso  1.000000 C
   C3         1.0     0.477470      0.811250      0.949790     Biso  1.000000 C
   C3         1.0     0.977470      0.688750      0.050210     Biso  1.000000 C
   C3         1.0     0.800210      0.561250      0.772530     Biso  1.000000 C
   C3         1.0     0.699790      0.438750      0.272530     Biso  1.000000 C
   C3         1.0     0.199790      0.061250      0.727470     Biso  1.000000 C
   C3         1.0     0.300210      0.938750      0.227470     Biso  1.000000 C
   C3         1.0     0.772530      0.800210      0.561250     Biso  1.000000 C
   C3         1.0     0.272530      0.699790      0.438750     Biso  1.000000 C
   C3         1.0     0.727470      0.199790      0.061250     Biso  1.000000 C
   C3         1.0     0.227470      0.300210      0.938750     Biso  1.000000 C
   C3         1.0     0.561250      0.772530      0.800210     Biso  1.000000 C
   C3         1.0     0.438750      0.272530      0.699790     Biso  1.000000 C
   C3         1.0     0.061250      0.727470      0.199790     Biso  1.000000 C
   C3         1.0     0.938750      0.227470      0.300210     Biso  1.000000 C
   C3         1.0     0.811250      0.050210      0.022530     Biso  1.000000 C
   C3         1.0     0.688750      0.949790      0.522530     Biso  1.000000 C
   C3         1.0     0.311250      0.449790      0.977470     Biso  1.000000 C
   C3         1.0     0.188750      0.550210      0.477470     Biso  1.000000 C
   C3         1.0     0.050210      0.022530      0.811250     Biso  1.000000 C
   C3         1.0     0.949790      0.522530      0.688750     Biso  1.000000 C
   C3         1.0     0.449790      0.977470      0.311250     Biso  1.000000 C
   C3         1.0     0.550210      0.477470      0.188750     Biso  1.000000 C
   C3         1.0     0.022530      0.811250      0.050210     Biso  1.000000 C
   C3         1.0     0.522530      0.688750      0.949790     Biso  1.000000 C
   C3         1.0     0.977470      0.311250      0.449790     Biso  1.000000 C
   C3         1.0     0.477470      0.188750      0.550210     Biso  1.000000 C
   C4         1.0     0.269890      0.099210      0.265330     Biso  1.000000 C
   C4         1.0     0.230110      0.900790      0.765330     Biso  1.000000 C
   C4         1.0     0.730110      0.599210      0.234670     Biso  1.000000 C
   C4         1.0     0.769890      0.400790      0.734670     Biso  1.000000 C
   C4         1.0     0.265330      0.269890      0.099210     Biso  1.000000 C
   C4         1.0     0.765330      0.230110      0.900790     Biso  1.000000 C
   C4         1.0     0.234670      0.730110      0.599210     Biso  1.000000 C
   C4         1.0     0.734670      0.769890      0.400790     Biso  1.000000 C
   C4         1.0     0.099210      0.265330      0.269890     Biso  1.000000 C
   C4         1.0     0.900790      0.765330      0.230110     Biso  1.000000 C
   C4         1.0     0.599210      0.234670      0.730110     Biso  1.000000 C
   C4         1.0     0.400790      0.734670      0.769890     Biso  1.000000 C
   C4         1.0     0.349210      0.519890      0.515330     Biso  1.000000 C
   C4         1.0     0.150790      0.480110      0.015330     Biso  1.000000 C
   C4         1.0     0.849210      0.980110      0.484670     Biso  1.000000 C
   C4         1.0     0.650790      0.019890      0.984670     Biso  1.000000 C
   C4         1.0     0.519890      0.515330      0.349210     Biso  1.000000 C
   C4         1.0     0.480110      0.015330      0.150790     Biso  1.000000 C
   C4         1.0     0.980110      0.484670      0.849210     Biso  1.000000 C
   C4         1.0     0.019890      0.984670      0.650790     Biso  1.000000 C
   C4         1.0     0.515330      0.349210      0.519890     Biso  1.000000 C
   C4         1.0     0.015330      0.150790      0.480110     Biso  1.000000 C
   C4         1.0     0.484670      0.849210      0.980110     Biso  1.000000 C
   C4         1.0     0.984670      0.650790      0.019890     Biso  1.000000 C
   C4         1.0     0.769890      0.599210      0.765330     Biso  1.000000 C
   C4         1.0     0.730110      0.400790      0.265330     Biso  1.000000 C
   C4         1.0     0.230110      0.099210      0.734670     Biso  1.000000 C
   C4         1.0     0.269890      0.900790      0.234670     Biso  1.000000 C
   C4         1.0     0.765330      0.769890      0.599210     Biso  1.000000 C
   C4         1.0     0.265330      0.730110      0.400790     Biso  1.000000 C
   C4         1.0     0.734670      0.230110      0.099210     Biso  1.000000 C
   C4         1.0     0.234670      0.269890      0.900790     Biso  1.000000 C
   C4         1.0     0.599210      0.765330      0.769890     Biso  1.000000 C
   C4         1.0     0.400790      0.265330      0.730110     Biso  1.000000 C
   C4         1.0     0.099210      0.734670      0.230110     Biso  1.000000 C
   C4         1.0     0.900790      0.234670      0.269890     Biso  1.000000 C
   C4         1.0     0.849210      0.019890      0.015330     Biso  1.000000 C
   C4         1.0     0.650790      0.980110      0.515330     Biso  1.000000 C
   C4         1.0     0.349210      0.480110      0.984670     Biso  1.000000 C
   C4         1.0     0.150790      0.519890      0.484670     Biso  1.000000 C
   C4         1.0     0.019890      0.015330      0.849210     Biso  1.000000 C
   C4         1.0     0.980110      0.515330      0.650790     Biso  1.000000 C
   C4         1.0     0.480110      0.984670      0.349210     Biso  1.000000 C
   C4         1.0     0.519890      0.484670      0.150790     Biso  1.000000 C
   C4         1.0     0.015330      0.849210      0.019890     Biso  1.000000 C
   C4         1.0     0.515330      0.650790      0.980110     Biso  1.000000 C
   C4         1.0     0.984670      0.349210      0.480110     Biso  1.000000 C
   C4         1.0     0.484670      0.150790      0.519890     Biso  1.000000 C
   C5         1.0     0.274960      0.127880      0.225490     Biso  1.000000 C
   C5         1.0     0.225040      0.872120      0.725490     Biso  1.000000 C
   C5         1.0     0.725040      0.627880      0.274510     Biso  1.000000 C
   C5         1.0     0.774960      0.372120      0.774510     Biso  1.000000 C
   C5         1.0     0.225490      0.274960      0.127880     Biso  1.000000 C
   C5         1.0     0.725490      0.225040      0.872120     Biso  1.000000 C
   C5         1.0     0.274510      0.725040      0.627880     Biso  1.000000 C
   C5         1.0     0.774510      0.774960      0.372120     Biso  1.000000 C
   C5         1.0     0.127880      0.225490      0.274960     Biso  1.000000 C
   C5         1.0     0.872120      0.725490      0.225040     Biso  1.000000 C
   C5         1.0     0.627880      0.274510      0.725040     Biso  1.000000 C
   C5         1.0     0.372120      0.774510      0.774960     Biso  1.000000 C
   C5         1.0     0.377880      0.524960      0.475490     Biso  1.000000 C
   C5         1.0     0.122120      0.475040      0.975490     Biso  1.000000 C
   C5         1.0     0.877880      0.975040      0.524510     Biso  1.000000 C
   C5         1.0     0.622120      0.024960      0.024510     Biso  1.000000 C
   C5         1.0     0.524960      0.475490      0.377880     Biso  1.000000 C
   C5         1.0     0.475040      0.975490      0.122120     Biso  1.000000 C
   C5         1.0     0.975040      0.524510      0.877880     Biso  1.000000 C
   C5         1.0     0.024960      0.024510      0.622120     Biso  1.000000 C
   C5         1.0     0.475490      0.377880      0.524960     Biso  1.000000 C
   C5         1.0     0.975490      0.122120      0.475040     Biso  1.000000 C
   C5         1.0     0.524510      0.877880      0.975040     Biso  1.000000 C
   C5         1.0     0.024510      0.622120      0.024960     Biso  1.000000 C
   C5         1.0     0.774960      0.627880      0.725490     Biso  1.000000 C
   C5         1.0     0.725040      0.372120      0.225490     Biso  1.000000 C
   C5         1.0     0.225040      0.127880      0.774510     Biso  1.000000 C
   C5         1.0     0.274960      0.872120      0.274510     Biso  1.000000 C
   C5         1.0     0.725490      0.774960      0.627880     Biso  1.000000 C
   C5         1.0     0.225490      0.725040      0.372120     Biso  1.000000 C
   C5         1.0     0.774510      0.225040      0.127880     Biso  1.000000 C
   C5         1.0     0.274510      0.274960      0.872120     Biso  1.000000 C
   C5         1.0     0.627880      0.725490      0.774960     Biso  1.000000 C
   C5         1.0     0.372120      0.225490      0.725040     Biso  1.000000 C
   C5         1.0     0.127880      0.774510      0.225040     Biso  1.000000 C
   C5         1.0     0.872120      0.274510      0.274960     Biso  1.000000 C
   C5         1.0     0.877880      0.024960      0.975490     Biso  1.000000 C
   C5         1.0     0.622120      0.975040      0.475490     Biso  1.000000 C
   C5         1.0     0.377880      0.475040      0.024510     Biso  1.000000 C
   C5         1.0     0.122120      0.524960      0.524510     Biso  1.000000 C
   C5         1.0     0.024960      0.975490      0.877880     Biso  1.000000 C
   C5         1.0     0.975040      0.475490      0.622120     Biso  1.000000 C
   C5         1.0     0.475040      0.024510      0.377880     Biso  1.000000 C
   C5         1.0     0.524960      0.524510      0.122120     Biso  1.000000 C
   C5         1.0     0.975490      0.877880      0.024960     Biso  1.000000 C
   C5         1.0     0.475490      0.622120      0.975040     Biso  1.000000 C
   C5         1.0     0.024510      0.377880      0.475040     Biso  1.000000 C
   C5         1.0     0.524510      0.122120      0.524960     Biso  1.000000 C
   C6         1.0     0.310620      0.117830      0.192900     Biso  1.000000 C
   C6         1.0     0.189380      0.882170      0.692900     Biso  1.000000 C
   C6         1.0     0.689380      0.617830      0.307100     Biso  1.000000 C
   C6         1.0     0.810620      0.382170      0.807100     Biso  1.000000 C
   C6         1.0     0.192900      0.310620      0.117830     Biso  1.000000 C
   C6         1.0     0.692900      0.189380      0.882170     Biso  1.000000 C
   C6         1.0     0.307100      0.689380      0.617830     Biso  1.000000 C
   C6         1.0     0.807100      0.810620      0.382170     Biso  1.000000 C
   C6         1.0     0.117830      0.192900      0.310620     Biso  1.000000 C
   C6         1.0     0.882170      0.692900      0.189380     Biso  1.000000 C
   C6         1.0     0.617830      0.307100      0.689380     Biso  1.000000 C
   C6         1.0     0.382170      0.807100      0.810620     Biso  1.000000 C
   C6         1.0     0.367830      0.560620      0.442900     Biso  1.000000 C
   C6         1.0     0.132170      0.439380      0.942900     Biso  1.000000 C
   C6         1.0     0.867830      0.939380      0.557100     Biso  1.000000 C
   C6         1.0     0.632170      0.060620      0.057100     Biso  1.000000 C
   C6         1.0     0.560620      0.442900      0.367830     Biso  1.000000 C
   C6         1.0     0.439380      0.942900      0.132170     Biso  1.000000 C
   C6         1.0     0.939380      0.557100      0.867830     Biso  1.000000 C
   C6         1.0     0.060620      0.057100      0.632170     Biso  1.000000 C
   C6         1.0     0.442900      0.367830      0.560620     Biso  1.000000 C
   C6         1.0     0.942900      0.132170      0.439380     Biso  1.000000 C
   C6         1.0     0.557100      0.867830      0.939380     Biso  1.000000 C
   C6         1.0     0.057100      0.632170      0.060620     Biso  1.000000 C
   C6         1.0     0.810620      0.617830      0.692900     Biso  1.000000 C
   C6         1.0     0.689380      0.382170      0.192900     Biso  1.000000 C
   C6         1.0     0.189380      0.117830      0.807100     Biso  1.000000 C
   C6         1.0     0.310620      0.882170      0.307100     Biso  1.000000 C
   C6         1.0     0.692900      0.810620      0.617830     Biso  1.000000 C
   C6         1.0     0.192900      0.689380      0.382170     Biso  1.000000 C
   C6         1.0     0.807100      0.189380      0.117830     Biso  1.000000 C
   C6         1.0     0.307100      0.310620      0.882170     Biso  1.000000 C
   C6         1.0     0.617830      0.692900      0.810620     Biso  1.000000 C
   C6         1.0     0.382170      0.192900      0.689380     Biso  1.000000 C
   C6         1.0     0.117830      0.807100      0.189380     Biso  1.000000 C
   C6         1.0     0.882170      0.307100      0.310620     Biso  1.000000 C
   C6         1.0     0.867830      0.060620      0.942900     Biso  1.000000 C
   C6         1.0     0.632170      0.939380      0.442900     Biso  1.000000 C
   C6         1.0     0.367830      0.439380      0.057100     Biso  1.000000 C
   C6         1.0     0.132170      0.560620      0.557100     Biso  1.000000 C
   C6         1.0     0.060620      0.942900      0.867830     Biso  1.000000 C
   C6         1.0     0.939380      0.442900      0.632170     Biso  1.000000 C
   C6         1.0     0.439380      0.057100      0.367830     Biso  1.000000 C
   C6         1.0     0.560620      0.557100      0.132170     Biso  1.000000 C
   C6         1.0     0.942900      0.867830      0.060620     Biso  1.000000 C
   C6         1.0     0.442900      0.632170      0.939380     Biso  1.000000 C
   C6         1.0     0.057100      0.367830      0.439380     Biso  1.000000 C
   C6         1.0     0.557100      0.132170      0.560620     Biso  1.000000 C
   Si1        1.0     0.375000      0.000000      0.250000     Biso  1.000000 Si
   Si1        1.0     0.125000      0.000000      0.750000     Biso  1.000000 Si
   Si1        1.0     0.625000      0.500000      0.250000     Biso  1.000000 Si
   Si1        1.0     0.875000      0.500000      0.750000     Biso  1.000000 Si
   Si1        1.0     0.250000      0.375000      0.000000     Biso  1.000000 Si
   Si1        1.0     0.750000      0.125000      0.000000     Biso  1.000000 Si
   Si1        1.0     0.250000      0.625000      0.500000     Biso  1.000000 Si
   Si1        1.0     0.750000      0.875000      0.500000     Biso  1.000000 Si
   Si1        1.0     0.000000      0.250000      0.375000     Biso  1.000000 Si
   Si1        1.0     0.000000      0.750000      0.125000     Biso  1.000000 Si
   Si1        1.0     0.500000      0.250000      0.625000     Biso  1.000000 Si
   Si1        1.0     0.500000      0.750000      0.875000     Biso  1.000000 Si
   H1         1.0     0.367480      0.072420      0.174070     Biso  1.000000 H
   H1         1.0     0.132520      0.927580      0.674070     Biso  1.000000 H
   H1         1.0     0.632520      0.572420      0.325930     Biso  1.000000 H
   H1         1.0     0.867480      0.427580      0.825930     Biso  1.000000 H
   H1         1.0     0.174070      0.367480      0.072420     Biso  1.000000 H
   H1         1.0     0.674070      0.132520      0.927580     Biso  1.000000 H
   H1         1.0     0.325930      0.632520      0.572420     Biso  1.000000 H
   H1         1.0     0.825930      0.867480      0.427580     Biso  1.000000 H
   H1         1.0     0.072420      0.174070      0.367480     Biso  1.000000 H
   H1         1.0     0.927580      0.674070      0.132520     Biso  1.000000 H
   H1         1.0     0.572420      0.325930      0.632520     Biso  1.000000 H
   H1         1.0     0.427580      0.825930      0.867480     Biso  1.000000 H
   H1         1.0     0.322420      0.617480      0.424070     Biso  1.000000 H
   H1         1.0     0.177580      0.382520      0.924070     Biso  1.000000 H
   H1         1.0     0.822420      0.882520      0.575930     Biso  1.000000 H
   H1         1.0     0.677580      0.117480      0.075930     Biso  1.000000 H
   H1         1.0     0.617480      0.424070      0.322420     Biso  1.000000 H
   H1         1.0     0.382520      0.924070      0.177580     Biso  1.000000 H
   H1         1.0     0.882520      0.575930      0.822420     Biso  1.000000 H
   H1         1.0     0.117480      0.075930      0.677580     Biso  1.000000 H
   H1         1.0     0.424070      0.322420      0.617480     Biso  1.000000 H
   H1         1.0     0.924070      0.177580      0.382520     Biso  1.000000 H
   H1         1.0     0.575930      0.822420      0.882520     Biso  1.000000 H
   H1         1.0     0.075930      0.677580      0.117480     Biso  1.000000 H
   H1         1.0     0.867480      0.572420      0.674070     Biso  1.000000 H
   H1         1.0     0.632520      0.427580      0.174070     Biso  1.000000 H
   H1         1.0     0.132520      0.072420      0.825930     Biso  1.000000 H
   H1         1.0     0.367480      0.927580      0.325930     Biso  1.000000 H
   H1         1.0     0.674070      0.867480      0.572420     Biso  1.000000 H
   H1         1.0     0.174070      0.632520      0.427580     Biso  1.000000 H
   H1         1.0     0.825930      0.132520      0.072420     Biso  1.000000 H
   H1         1.0     0.325930      0.367480      0.927580     Biso  1.000000 H
   H1         1.0     0.572420      0.674070      0.867480     Biso  1.000000 H
   H1         1.0     0.427580      0.174070      0.632520     Biso  1.000000 H
   H1         1.0     0.072420      0.825930      0.132520     Biso  1.000000 H
   H1         1.0     0.927580      0.325930      0.367480     Biso  1.000000 H
   H1         1.0     0.822420      0.117480      0.924070     Biso  1.000000 H
   H1         1.0     0.677580      0.882520      0.424070     Biso  1.000000 H
   H1         1.0     0.322420      0.382520      0.075930     Biso  1.000000 H
   H1         1.0     0.177580      0.617480      0.575930     Biso  1.000000 H
   H1         1.0     0.117480      0.924070      0.822420     Biso  1.000000 H
   H1         1.0     0.882520      0.424070      0.677580     Biso  1.000000 H
   H1         1.0     0.382520      0.075930      0.322420     Biso  1.000000 H
   H1         1.0     0.617480      0.575930      0.177580     Biso  1.000000 H
   H1         1.0     0.924070      0.822420      0.117480     Biso  1.000000 H
   H1         1.0     0.424070      0.677580      0.882520     Biso  1.000000 H
   H1         1.0     0.075930      0.322420      0.382520     Biso  1.000000 H
   H1         1.0     0.575930      0.177580      0.617480     Biso  1.000000 H
   H2         1.0     0.295750      0.039490      0.303450     Biso  1.000000 H
   H2         1.0     0.204250      0.960510      0.803450     Biso  1.000000 H
   H2         1.0     0.704250      0.539490      0.196550     Biso  1.000000 H
   H2         1.0     0.795750      0.460510      0.696550     Biso  1.000000 H
   H2         1.0     0.303450      0.295750      0.039490     Biso  1.000000 H
   H2         1.0     0.803450      0.204250      0.960510     Biso  1.000000 H
   H2         1.0     0.196550      0.704250      0.539490     Biso  1.000000 H
   H2         1.0     0.696550      0.795750      0.460510     Biso  1.000000 H
   H2         1.0     0.039490      0.303450      0.295750     Biso  1.000000 H
   H2         1.0     0.960510      0.803450      0.204250     Biso  1.000000 H
   H2         1.0     0.539490      0.196550      0.704250     Biso  1.000000 H
   H2         1.0     0.460510      0.696550      0.795750     Biso  1.000000 H
   H2         1.0     0.289490      0.545750      0.553450     Biso  1.000000 H
   H2         1.0     0.210510      0.454250      0.053450     Biso  1.000000 H
   H2         1.0     0.789490      0.954250      0.446550     Biso  1.000000 H
   H2         1.0     0.710510      0.045750      0.946550     Biso  1.000000 H
   H2         1.0     0.545750      0.553450      0.289490     Biso  1.000000 H
   H2         1.0     0.454250      0.053450      0.210510     Biso  1.000000 H
   H2         1.0     0.954250      0.446550      0.789490     Biso  1.000000 H
   H2         1.0     0.045750      0.946550      0.710510     Biso  1.000000 H
   H2         1.0     0.553450      0.289490      0.545750     Biso  1.000000 H
   H2         1.0     0.053450      0.210510      0.454250     Biso  1.000000 H
   H2         1.0     0.446550      0.789490      0.954250     Biso  1.000000 H
   H2         1.0     0.946550      0.710510      0.045750     Biso  1.000000 H
   H2         1.0     0.795750      0.539490      0.803450     Biso  1.000000 H
   H2         1.0     0.704250      0.460510      0.303450     Biso  1.000000 H
   H2         1.0     0.204250      0.039490      0.696550     Biso  1.000000 H
   H2         1.0     0.295750      0.960510      0.196550     Biso  1.000000 H
   H2         1.0     0.803450      0.795750      0.539490     Biso  1.000000 H
   H2         1.0     0.303450      0.704250      0.460510     Biso  1.000000 H
   H2         1.0     0.696550      0.204250      0.039490     Biso  1.000000 H
   H2         1.0     0.196550      0.295750      0.960510     Biso  1.000000 H
   H2         1.0     0.539490      0.803450      0.795750     Biso  1.000000 H
   H2         1.0     0.460510      0.303450      0.704250     Biso  1.000000 H
   H2         1.0     0.039490      0.696550      0.204250     Biso  1.000000 H
   H2         1.0     0.960510      0.196550      0.295750     Biso  1.000000 H
   H2         1.0     0.789490      0.045750      0.053450     Biso  1.000000 H
   H2         1.0     0.710510      0.954250      0.553450     Biso  1.000000 H
   H2         1.0     0.289490      0.454250      0.946550     Biso  1.000000 H
   H2         1.0     0.210510      0.545750      0.446550     Biso  1.000000 H
   H2         1.0     0.045750      0.053450      0.789490     Biso  1.000000 H
   H2         1.0     0.954250      0.553450      0.710510     Biso  1.000000 H
   H2         1.0     0.454250      0.946550      0.289490     Biso  1.000000 H
   H2         1.0     0.545750      0.446550      0.210510     Biso  1.000000 H
   H2         1.0     0.053450      0.789490      0.045750     Biso  1.000000 H
   H2         1.0     0.553450      0.710510      0.954250     Biso  1.000000 H
   H2         1.0     0.946550      0.289490      0.454250     Biso  1.000000 H
   H2         1.0     0.446550      0.210510      0.545750     Biso  1.000000 H
   H3         1.0     0.242630      0.106070      0.291000     Biso  1.000000 H
   H3         1.0     0.257370      0.893930      0.791000     Biso  1.000000 H
   H3         1.0     0.757370      0.606070      0.209000     Biso  1.000000 H
   H3         1.0     0.742630      0.393930      0.709000     Biso  1.000000 H
   H3         1.0     0.291000      0.242630      0.106070     Biso  1.000000 H
   H3         1.0     0.791000      0.257370      0.893930     Biso  1.000000 H
   H3         1.0     0.209000      0.757370      0.606070     Biso  1.000000 H
   H3         1.0     0.709000      0.742630      0.393930     Biso  1.000000 H
   H3         1.0     0.106070      0.291000      0.242630     Biso  1.000000 H
   H3         1.0     0.893930      0.791000      0.257370     Biso  1.000000 H
   H3         1.0     0.606070      0.209000      0.757370     Biso  1.000000 H
   H3         1.0     0.393930      0.709000      0.742630     Biso  1.000000 H
   H3         1.0     0.356070      0.492630      0.541000     Biso  1.000000 H
   H3         1.0     0.143930      0.507370      0.041000     Biso  1.000000 H
   H3         1.0     0.856070      0.007370      0.459000     Biso  1.000000 H
   H3         1.0     0.643930      0.992630      0.959000     Biso  1.000000 H
   H3         1.0     0.492630      0.541000      0.356070     Biso  1.000000 H
   H3         1.0     0.507370      0.041000      0.143930     Biso  1.000000 H
   H3         1.0     0.007370      0.459000      0.856070     Biso  1.000000 H
   H3         1.0     0.992630      0.959000      0.643930     Biso  1.000000 H
   H3         1.0     0.541000      0.356070      0.492630     Biso  1.000000 H
   H3         1.0     0.041000      0.143930      0.507370     Biso  1.000000 H
   H3         1.0     0.459000      0.856070      0.007370     Biso  1.000000 H
   H3         1.0     0.959000      0.643930      0.992630     Biso  1.000000 H
   H3         1.0     0.742630      0.606070      0.791000     Biso  1.000000 H
   H3         1.0     0.757370      0.393930      0.291000     Biso  1.000000 H
   H3         1.0     0.257370      0.106070      0.709000     Biso  1.000000 H
   H3         1.0     0.242630      0.893930      0.209000     Biso  1.000000 H
   H3         1.0     0.791000      0.742630      0.606070     Biso  1.000000 H
   H3         1.0     0.291000      0.757370      0.393930     Biso  1.000000 H
   H3         1.0     0.709000      0.257370      0.106070     Biso  1.000000 H
   H3         1.0     0.209000      0.242630      0.893930     Biso  1.000000 H
   H3         1.0     0.606070      0.791000      0.742630     Biso  1.000000 H
   H3         1.0     0.393930      0.291000      0.757370     Biso  1.000000 H
   H3         1.0     0.106070      0.709000      0.257370     Biso  1.000000 H
   H3         1.0     0.893930      0.209000      0.242630     Biso  1.000000 H
   H3         1.0     0.856070      0.992630      0.041000     Biso  1.000000 H
   H3         1.0     0.643930      0.007370      0.541000     Biso  1.000000 H
   H3         1.0     0.356070      0.507370      0.959000     Biso  1.000000 H
   H3         1.0     0.143930      0.492630      0.459000     Biso  1.000000 H
   H3         1.0     0.992630      0.041000      0.856070     Biso  1.000000 H
   H3         1.0     0.007370      0.541000      0.643930     Biso  1.000000 H
   H3         1.0     0.507370      0.959000      0.356070     Biso  1.000000 H
   H3         1.0     0.492630      0.459000      0.143930     Biso  1.000000 H
   H3         1.0     0.041000      0.856070      0.992630     Biso  1.000000 H
   H3         1.0     0.541000      0.643930      0.007370     Biso  1.000000 H
   H3         1.0     0.959000      0.356070      0.507370     Biso  1.000000 H
   H3         1.0     0.459000      0.143930      0.492630     Biso  1.000000 H
   H4         1.0     0.315170      0.139200      0.161710     Biso  1.000000 H
   H4         1.0     0.184830      0.860800      0.661710     Biso  1.000000 H
   H4         1.0     0.684830      0.639200      0.338290     Biso  1.000000 H
   H4         1.0     0.815170      0.360800      0.838290     Biso  1.000000 H
   H4         1.0     0.161710      0.315170      0.139200     Biso  1.000000 H
   H4         1.0     0.661710      0.184830      0.860800     Biso  1.000000 H
   H4         1.0     0.338290      0.684830      0.639200     Biso  1.000000 H
   H4         1.0     0.838290      0.815170      0.360800     Biso  1.000000 H
   H4         1.0     0.139200      0.161710      0.315170     Biso  1.000000 H
   H4         1.0     0.860800      0.661710      0.184830     Biso  1.000000 H
   H4         1.0     0.639200      0.338290      0.684830     Biso  1.000000 H
   H4         1.0     0.360800      0.838290      0.815170     Biso  1.000000 H
   H4         1.0     0.389200      0.565170      0.411710     Biso  1.000000 H
   H4         1.0     0.110800      0.434830      0.911710     Biso  1.000000 H
   H4         1.0     0.889200      0.934830      0.588290     Biso  1.000000 H
   H4         1.0     0.610800      0.065170      0.088290     Biso  1.000000 H
   H4         1.0     0.565170      0.411710      0.389200     Biso  1.000000 H
   H4         1.0     0.434830      0.911710      0.110800     Biso  1.000000 H
   H4         1.0     0.934830      0.588290      0.889200     Biso  1.000000 H
   H4         1.0     0.065170      0.088290      0.610800     Biso  1.000000 H
   H4         1.0     0.411710      0.389200      0.565170     Biso  1.000000 H
   H4         1.0     0.911710      0.110800      0.434830     Biso  1.000000 H
   H4         1.0     0.588290      0.889200      0.934830     Biso  1.000000 H
   H4         1.0     0.088290      0.610800      0.065170     Biso  1.000000 H
   H4         1.0     0.815170      0.639200      0.661710     Biso  1.000000 H
   H4         1.0     0.684830      0.360800      0.161710     Biso  1.000000 H
   H4         1.0     0.184830      0.139200      0.838290     Biso  1.000000 H
   H4         1.0     0.315170      0.860800      0.338290     Biso  1.000000 H
   H4         1.0     0.661710      0.815170      0.639200     Biso  1.000000 H
   H4         1.0     0.161710      0.684830      0.360800     Biso  1.000000 H
   H4         1.0     0.838290      0.184830      0.139200     Biso  1.000000 H
   H4         1.0     0.338290      0.315170      0.860800     Biso  1.000000 H
   H4         1.0     0.639200      0.661710      0.815170     Biso  1.000000 H
   H4         1.0     0.360800      0.161710      0.684830     Biso  1.000000 H
   H4         1.0     0.139200      0.838290      0.184830     Biso  1.000000 H
   H4         1.0     0.860800      0.338290      0.315170     Biso  1.000000 H
   H4         1.0     0.889200      0.065170      0.911710     Biso  1.000000 H
   H4         1.0     0.610800      0.934830      0.411710     Biso  1.000000 H
   H4         1.0     0.389200      0.434830      0.088290     Biso  1.000000 H
   H4         1.0     0.110800      0.565170      0.588290     Biso  1.000000 H
   H4         1.0     0.065170      0.911710      0.889200     Biso  1.000000 H
   H4         1.0     0.934830      0.411710      0.610800     Biso  1.000000 H
   H4         1.0     0.434830      0.088290      0.389200     Biso  1.000000 H
   H4         1.0     0.565170      0.588290      0.110800     Biso  1.000000 H
   H4         1.0     0.911710      0.889200      0.065170     Biso  1.000000 H
   H4         1.0     0.411710      0.610800      0.934830     Biso  1.000000 H
   H4         1.0     0.088290      0.389200      0.434830     Biso  1.000000 H
   H4         1.0     0.588290      0.110800      0.565170     Biso  1.000000 H
