#======================================================================

# CRYSTAL DATA

#----------------------------------------------------------------------

data_VESTA_phase_1


_chemical_name_common                  ''
_cell_length_a                         26.34300
_cell_length_b                         26.34300
_cell_length_c                         26.34300
_cell_angle_alpha                      90
_cell_angle_beta                       90
_cell_angle_gamma                      90
_space_group_name_H-M_alt              'P 1'
_space_group_IT_number                 1

loop_
_space_group_symop_operation_xyz
   'x, y, z'

loop_
   _atom_site_label
   _atom_site_occupancy
   _atom_site_fract_x
   _atom_site_fract_y
   _atom_site_fract_z
   _atom_site_adp_type
   _atom_site_B_iso_or_equiv
   _atom_site_type_symbol
   Cu1        1.0     0.285300      0.285300      0.000000     Biso  1.000000 Cu
   Cu1        1.0     0.714700      0.714700      0.000000     Biso  1.000000 Cu
   Cu1        1.0     0.714700      0.285300      0.000000     Biso  1.000000 Cu
   Cu1        1.0     0.285300      0.714700      0.000000     Biso  1.000000 Cu
   Cu1        1.0     0.000000      0.285300      0.285300     Biso  1.000000 Cu
   Cu1        1.0     0.000000      0.714700      0.714700     Biso  1.000000 Cu
   Cu1        1.0     0.000000      0.714700      0.285300     Biso  1.000000 Cu
   Cu1        1.0     0.000000      0.285300      0.714700     Biso  1.000000 Cu
   Cu1        1.0     0.285300      0.000000      0.285300     Biso  1.000000 Cu
   Cu1        1.0     0.714700      0.000000      0.714700     Biso  1.000000 Cu
   Cu1        1.0     0.285300      0.000000      0.714700     Biso  1.000000 Cu
   Cu1        1.0     0.714700      0.000000      0.285300     Biso  1.000000 Cu
   Cu1        1.0     0.285300      0.785300      0.500000     Biso  1.000000 Cu
   Cu1        1.0     0.714700      0.214700      0.500000     Biso  1.000000 Cu
   Cu1        1.0     0.714700      0.785300      0.500000     Biso  1.000000 Cu
   Cu1        1.0     0.285300      0.214700      0.500000     Biso  1.000000 Cu
   Cu1        1.0     0.000000      0.785300      0.785300     Biso  1.000000 Cu
   Cu1        1.0     0.000000      0.214700      0.214700     Biso  1.000000 Cu
   Cu1        1.0     0.000000      0.214700      0.785300     Biso  1.000000 Cu
   Cu1        1.0     0.000000      0.785300      0.214700     Biso  1.000000 Cu
   Cu1        1.0     0.285300      0.500000      0.785300     Biso  1.000000 Cu
   Cu1        1.0     0.714700      0.500000      0.214700     Biso  1.000000 Cu
   Cu1        1.0     0.285300      0.500000      0.214700     Biso  1.000000 Cu
   Cu1        1.0     0.714700      0.500000      0.785300     Biso  1.000000 Cu
   Cu1        1.0     0.785300      0.285300      0.500000     Biso  1.000000 Cu
   Cu1        1.0     0.214700      0.714700      0.500000     Biso  1.000000 Cu
   Cu1        1.0     0.214700      0.285300      0.500000     Biso  1.000000 Cu
   Cu1        1.0     0.785300      0.714700      0.500000     Biso  1.000000 Cu
   Cu1        1.0     0.500000      0.285300      0.785300     Biso  1.000000 Cu
   Cu1        1.0     0.500000      0.714700      0.214700     Biso  1.000000 Cu
   Cu1        1.0     0.500000      0.714700      0.785300     Biso  1.000000 Cu
   Cu1        1.0     0.500000      0.285300      0.214700     Biso  1.000000 Cu
   Cu1        1.0     0.785300      0.000000      0.785300     Biso  1.000000 Cu
   Cu1        1.0     0.214700      0.000000      0.214700     Biso  1.000000 Cu
   Cu1        1.0     0.785300      0.000000      0.214700     Biso  1.000000 Cu
   Cu1        1.0     0.214700      0.000000      0.785300     Biso  1.000000 Cu
   Cu1        1.0     0.785300      0.785300      0.000000     Biso  1.000000 Cu
   Cu1        1.0     0.214700      0.214700      0.000000     Biso  1.000000 Cu
   Cu1        1.0     0.214700      0.785300      0.000000     Biso  1.000000 Cu
   Cu1        1.0     0.785300      0.214700      0.000000     Biso  1.000000 Cu
   Cu1        1.0     0.500000      0.785300      0.285300     Biso  1.000000 Cu
   Cu1        1.0     0.500000      0.214700      0.714700     Biso  1.000000 Cu
   Cu1        1.0     0.500000      0.214700      0.285300     Biso  1.000000 Cu
   Cu1        1.0     0.500000      0.785300      0.714700     Biso  1.000000 Cu
   Cu1        1.0     0.785300      0.500000      0.285300     Biso  1.000000 Cu
   Cu1        1.0     0.214700      0.500000      0.714700     Biso  1.000000 Cu
   Cu1        1.0     0.785300      0.500000      0.714700     Biso  1.000000 Cu
   Cu1        1.0     0.214700      0.500000      0.285300     Biso  1.000000 Cu
   O1         1.0     0.316600      0.243100      0.947800     Biso  1.000000 O
   O1         1.0     0.683400      0.756900      0.052200     Biso  1.000000 O
   O1         1.0     0.683400      0.756900      0.947800     Biso  1.000000 O
   O1         1.0     0.316600      0.243100      0.052200     Biso  1.000000 O
   O1         1.0     0.683400      0.243100      0.052200     Biso  1.000000 O
   O1         1.0     0.316600      0.756900      0.947800     Biso  1.000000 O
   O1         1.0     0.316600      0.756900      0.052200     Biso  1.000000 O
   O1         1.0     0.683400      0.243100      0.947800     Biso  1.000000 O
   O1         1.0     0.947800      0.316600      0.243100     Biso  1.000000 O
   O1         1.0     0.052200      0.683400      0.756900     Biso  1.000000 O
   O1         1.0     0.947800      0.683400      0.756900     Biso  1.000000 O
   O1         1.0     0.052200      0.316600      0.243100     Biso  1.000000 O
   O1         1.0     0.052200      0.683400      0.243100     Biso  1.000000 O
   O1         1.0     0.947800      0.316600      0.756900     Biso  1.000000 O
   O1         1.0     0.052200      0.316600      0.756900     Biso  1.000000 O
   O1         1.0     0.947800      0.683400      0.243100     Biso  1.000000 O
   O1         1.0     0.243100      0.947800      0.316600     Biso  1.000000 O
   O1         1.0     0.756900      0.052200      0.683400     Biso  1.000000 O
   O1         1.0     0.756900      0.947800      0.683400     Biso  1.000000 O
   O1         1.0     0.243100      0.052200      0.316600     Biso  1.000000 O
   O1         1.0     0.243100      0.052200      0.683400     Biso  1.000000 O
   O1         1.0     0.756900      0.947800      0.316600     Biso  1.000000 O
   O1         1.0     0.756900      0.052200      0.316600     Biso  1.000000 O
   O1         1.0     0.243100      0.947800      0.683400     Biso  1.000000 O
   O1         1.0     0.243100      0.316600      0.052200     Biso  1.000000 O
   O1         1.0     0.756900      0.683400      0.947800     Biso  1.000000 O
   O1         1.0     0.756900      0.683400      0.052200     Biso  1.000000 O
   O1         1.0     0.243100      0.316600      0.947800     Biso  1.000000 O
   O1         1.0     0.243100      0.683400      0.947800     Biso  1.000000 O
   O1         1.0     0.756900      0.316600      0.052200     Biso  1.000000 O
   O1         1.0     0.756900      0.316600      0.947800     Biso  1.000000 O
   O1         1.0     0.243100      0.683400      0.052200     Biso  1.000000 O
   O1         1.0     0.316600      0.947800      0.756900     Biso  1.000000 O
   O1         1.0     0.683400      0.052200      0.243100     Biso  1.000000 O
   O1         1.0     0.683400      0.947800      0.243100     Biso  1.000000 O
   O1         1.0     0.316600      0.052200      0.756900     Biso  1.000000 O
   O1         1.0     0.683400      0.052200      0.756900     Biso  1.000000 O
   O1         1.0     0.316600      0.947800      0.243100     Biso  1.000000 O
   O1         1.0     0.316600      0.052200      0.243100     Biso  1.000000 O
   O1         1.0     0.683400      0.947800      0.756900     Biso  1.000000 O
   O1         1.0     0.947800      0.243100      0.683400     Biso  1.000000 O
   O1         1.0     0.052200      0.756900      0.316600     Biso  1.000000 O
   O1         1.0     0.947800      0.756900      0.316600     Biso  1.000000 O
   O1         1.0     0.052200      0.243100      0.683400     Biso  1.000000 O
   O1         1.0     0.052200      0.243100      0.316600     Biso  1.000000 O
   O1         1.0     0.947800      0.756900      0.683400     Biso  1.000000 O
   O1         1.0     0.052200      0.756900      0.683400     Biso  1.000000 O
   O1         1.0     0.947800      0.243100      0.316600     Biso  1.000000 O
   O1         1.0     0.316600      0.743100      0.447800     Biso  1.000000 O
   O1         1.0     0.683400      0.256900      0.552200     Biso  1.000000 O
   O1         1.0     0.683400      0.256900      0.447800     Biso  1.000000 O
   O1         1.0     0.316600      0.743100      0.552200     Biso  1.000000 O
   O1         1.0     0.683400      0.743100      0.552200     Biso  1.000000 O
   O1         1.0     0.316600      0.256900      0.447800     Biso  1.000000 O
   O1         1.0     0.316600      0.256900      0.552200     Biso  1.000000 O
   O1         1.0     0.683400      0.743100      0.447800     Biso  1.000000 O
   O1         1.0     0.947800      0.816600      0.743100     Biso  1.000000 O
   O1         1.0     0.052200      0.183400      0.256900     Biso  1.000000 O
   O1         1.0     0.947800      0.183400      0.256900     Biso  1.000000 O
   O1         1.0     0.052200      0.816600      0.743100     Biso  1.000000 O
   O1         1.0     0.052200      0.183400      0.743100     Biso  1.000000 O
   O1         1.0     0.947800      0.816600      0.256900     Biso  1.000000 O
   O1         1.0     0.052200      0.816600      0.256900     Biso  1.000000 O
   O1         1.0     0.947800      0.183400      0.743100     Biso  1.000000 O
   O1         1.0     0.243100      0.447800      0.816600     Biso  1.000000 O
   O1         1.0     0.756900      0.552200      0.183400     Biso  1.000000 O
   O1         1.0     0.756900      0.447800      0.183400     Biso  1.000000 O
   O1         1.0     0.243100      0.552200      0.816600     Biso  1.000000 O
   O1         1.0     0.243100      0.552200      0.183400     Biso  1.000000 O
   O1         1.0     0.756900      0.447800      0.816600     Biso  1.000000 O
   O1         1.0     0.756900      0.552200      0.816600     Biso  1.000000 O
   O1         1.0     0.243100      0.447800      0.183400     Biso  1.000000 O
   O1         1.0     0.243100      0.816600      0.552200     Biso  1.000000 O
   O1         1.0     0.756900      0.183400      0.447800     Biso  1.000000 O
   O1         1.0     0.756900      0.183400      0.552200     Biso  1.000000 O
   O1         1.0     0.243100      0.816600      0.447800     Biso  1.000000 O
   O1         1.0     0.243100      0.183400      0.447800     Biso  1.000000 O
   O1         1.0     0.756900      0.816600      0.552200     Biso  1.000000 O
   O1         1.0     0.756900      0.816600      0.447800     Biso  1.000000 O
   O1         1.0     0.243100      0.183400      0.552200     Biso  1.000000 O
   O1         1.0     0.316600      0.447800      0.256900     Biso  1.000000 O
   O1         1.0     0.683400      0.552200      0.743100     Biso  1.000000 O
   O1         1.0     0.683400      0.447800      0.743100     Biso  1.000000 O
   O1         1.0     0.316600      0.552200      0.256900     Biso  1.000000 O
   O1         1.0     0.683400      0.552200      0.256900     Biso  1.000000 O
   O1         1.0     0.316600      0.447800      0.743100     Biso  1.000000 O
   O1         1.0     0.316600      0.552200      0.743100     Biso  1.000000 O
   O1         1.0     0.683400      0.447800      0.256900     Biso  1.000000 O
   O1         1.0     0.947800      0.743100      0.183400     Biso  1.000000 O
   O1         1.0     0.052200      0.256900      0.816600     Biso  1.000000 O
   O1         1.0     0.947800      0.256900      0.816600     Biso  1.000000 O
   O1         1.0     0.052200      0.743100      0.183400     Biso  1.000000 O
   O1         1.0     0.052200      0.743100      0.816600     Biso  1.000000 O
   O1         1.0     0.947800      0.256900      0.183400     Biso  1.000000 O
   O1         1.0     0.052200      0.256900      0.183400     Biso  1.000000 O
   O1         1.0     0.947800      0.743100      0.816600     Biso  1.000000 O
   O1         1.0     0.816600      0.243100      0.447800     Biso  1.000000 O
   O1         1.0     0.183400      0.756900      0.552200     Biso  1.000000 O
   O1         1.0     0.183400      0.756900      0.447800     Biso  1.000000 O
   O1         1.0     0.816600      0.243100      0.552200     Biso  1.000000 O
   O1         1.0     0.183400      0.243100      0.552200     Biso  1.000000 O
   O1         1.0     0.816600      0.756900      0.447800     Biso  1.000000 O
   O1         1.0     0.816600      0.756900      0.552200     Biso  1.000000 O
   O1         1.0     0.183400      0.243100      0.447800     Biso  1.000000 O
   O1         1.0     0.447800      0.316600      0.743100     Biso  1.000000 O
   O1         1.0     0.552200      0.683400      0.256900     Biso  1.000000 O
   O1         1.0     0.447800      0.683400      0.256900     Biso  1.000000 O
   O1         1.0     0.552200      0.316600      0.743100     Biso  1.000000 O
   O1         1.0     0.552200      0.683400      0.743100     Biso  1.000000 O
   O1         1.0     0.447800      0.316600      0.256900     Biso  1.000000 O
   O1         1.0     0.552200      0.316600      0.256900     Biso  1.000000 O
   O1         1.0     0.447800      0.683400      0.743100     Biso  1.000000 O
   O1         1.0     0.743100      0.947800      0.816600     Biso  1.000000 O
   O1         1.0     0.256900      0.052200      0.183400     Biso  1.000000 O
   O1         1.0     0.256900      0.947800      0.183400     Biso  1.000000 O
   O1         1.0     0.743100      0.052200      0.816600     Biso  1.000000 O
   O1         1.0     0.743100      0.052200      0.183400     Biso  1.000000 O
   O1         1.0     0.256900      0.947800      0.816600     Biso  1.000000 O
   O1         1.0     0.256900      0.052200      0.816600     Biso  1.000000 O
   O1         1.0     0.743100      0.947800      0.183400     Biso  1.000000 O
   O1         1.0     0.743100      0.316600      0.552200     Biso  1.000000 O
   O1         1.0     0.256900      0.683400      0.447800     Biso  1.000000 O
   O1         1.0     0.256900      0.683400      0.552200     Biso  1.000000 O
   O1         1.0     0.743100      0.316600      0.447800     Biso  1.000000 O
   O1         1.0     0.743100      0.683400      0.447800     Biso  1.000000 O
   O1         1.0     0.256900      0.316600      0.552200     Biso  1.000000 O
   O1         1.0     0.256900      0.316600      0.447800     Biso  1.000000 O
   O1         1.0     0.743100      0.683400      0.552200     Biso  1.000000 O
   O1         1.0     0.816600      0.947800      0.256900     Biso  1.000000 O
   O1         1.0     0.183400      0.052200      0.743100     Biso  1.000000 O
   O1         1.0     0.183400      0.947800      0.743100     Biso  1.000000 O
   O1         1.0     0.816600      0.052200      0.256900     Biso  1.000000 O
   O1         1.0     0.183400      0.052200      0.256900     Biso  1.000000 O
   O1         1.0     0.816600      0.947800      0.743100     Biso  1.000000 O
   O1         1.0     0.816600      0.052200      0.743100     Biso  1.000000 O
   O1         1.0     0.183400      0.947800      0.256900     Biso  1.000000 O
   O1         1.0     0.447800      0.243100      0.183400     Biso  1.000000 O
   O1         1.0     0.552200      0.756900      0.816600     Biso  1.000000 O
   O1         1.0     0.447800      0.756900      0.816600     Biso  1.000000 O
   O1         1.0     0.552200      0.243100      0.183400     Biso  1.000000 O
   O1         1.0     0.552200      0.243100      0.816600     Biso  1.000000 O
   O1         1.0     0.447800      0.756900      0.183400     Biso  1.000000 O
   O1         1.0     0.552200      0.756900      0.183400     Biso  1.000000 O
   O1         1.0     0.447800      0.243100      0.816600     Biso  1.000000 O
   O1         1.0     0.816600      0.743100      0.947800     Biso  1.000000 O
   O1         1.0     0.183400      0.256900      0.052200     Biso  1.000000 O
   O1         1.0     0.183400      0.256900      0.947800     Biso  1.000000 O
   O1         1.0     0.816600      0.743100      0.052200     Biso  1.000000 O
   O1         1.0     0.183400      0.743100      0.052200     Biso  1.000000 O
   O1         1.0     0.816600      0.256900      0.947800     Biso  1.000000 O
   O1         1.0     0.816600      0.256900      0.052200     Biso  1.000000 O
   O1         1.0     0.183400      0.743100      0.947800     Biso  1.000000 O
   O1         1.0     0.447800      0.816600      0.243100     Biso  1.000000 O
   O1         1.0     0.552200      0.183400      0.756900     Biso  1.000000 O
   O1         1.0     0.447800      0.183400      0.756900     Biso  1.000000 O
   O1         1.0     0.552200      0.816600      0.243100     Biso  1.000000 O
   O1         1.0     0.552200      0.183400      0.243100     Biso  1.000000 O
   O1         1.0     0.447800      0.816600      0.756900     Biso  1.000000 O
   O1         1.0     0.552200      0.816600      0.756900     Biso  1.000000 O
   O1         1.0     0.447800      0.183400      0.243100     Biso  1.000000 O
   O1         1.0     0.743100      0.447800      0.316600     Biso  1.000000 O
   O1         1.0     0.256900      0.552200      0.683400     Biso  1.000000 O
   O1         1.0     0.256900      0.447800      0.683400     Biso  1.000000 O
   O1         1.0     0.743100      0.552200      0.316600     Biso  1.000000 O
   O1         1.0     0.743100      0.552200      0.683400     Biso  1.000000 O
   O1         1.0     0.256900      0.447800      0.316600     Biso  1.000000 O
   O1         1.0     0.256900      0.552200      0.316600     Biso  1.000000 O
   O1         1.0     0.743100      0.447800      0.683400     Biso  1.000000 O
   O1         1.0     0.743100      0.816600      0.052200     Biso  1.000000 O
   O1         1.0     0.256900      0.183400      0.947800     Biso  1.000000 O
   O1         1.0     0.256900      0.183400      0.052200     Biso  1.000000 O
   O1         1.0     0.743100      0.816600      0.947800     Biso  1.000000 O
   O1         1.0     0.743100      0.183400      0.947800     Biso  1.000000 O
   O1         1.0     0.256900      0.816600      0.052200     Biso  1.000000 O
   O1         1.0     0.256900      0.816600      0.947800     Biso  1.000000 O
   O1         1.0     0.743100      0.183400      0.052200     Biso  1.000000 O
   O1         1.0     0.816600      0.447800      0.756900     Biso  1.000000 O
   O1         1.0     0.183400      0.552200      0.243100     Biso  1.000000 O
   O1         1.0     0.183400      0.447800      0.243100     Biso  1.000000 O
   O1         1.0     0.816600      0.552200      0.756900     Biso  1.000000 O
   O1         1.0     0.183400      0.552200      0.756900     Biso  1.000000 O
   O1         1.0     0.816600      0.447800      0.243100     Biso  1.000000 O
   O1         1.0     0.816600      0.552200      0.243100     Biso  1.000000 O
   O1         1.0     0.183400      0.447800      0.756900     Biso  1.000000 O
   O1         1.0     0.447800      0.743100      0.683400     Biso  1.000000 O
   O1         1.0     0.552200      0.256900      0.316600     Biso  1.000000 O
   O1         1.0     0.447800      0.256900      0.316600     Biso  1.000000 O
   O1         1.0     0.552200      0.743100      0.683400     Biso  1.000000 O
   O1         1.0     0.552200      0.743100      0.316600     Biso  1.000000 O
   O1         1.0     0.447800      0.256900      0.683400     Biso  1.000000 O
   O1         1.0     0.552200      0.256900      0.683400     Biso  1.000000 O
   O1         1.0     0.447800      0.743100      0.316600     Biso  1.000000 O
   C1         1.0     0.296800      0.203200      0.931300     Biso  1.000000 C
   C1         1.0     0.703200      0.796800      0.068700     Biso  1.000000 C
   C1         1.0     0.703200      0.796800      0.931300     Biso  1.000000 C
   C1         1.0     0.296800      0.203200      0.068700     Biso  1.000000 C
   C1         1.0     0.703200      0.203200      0.068700     Biso  1.000000 C
   C1         1.0     0.296800      0.796800      0.931300     Biso  1.000000 C
   C1         1.0     0.296800      0.796800      0.068700     Biso  1.000000 C
   C1         1.0     0.703200      0.203200      0.931300     Biso  1.000000 C
   C1         1.0     0.931300      0.296800      0.203200     Biso  1.000000 C
   C1         1.0     0.068700      0.703200      0.796800     Biso  1.000000 C
   C1         1.0     0.931300      0.703200      0.796800     Biso  1.000000 C
   C1         1.0     0.068700      0.296800      0.203200     Biso  1.000000 C
   C1         1.0     0.068700      0.703200      0.203200     Biso  1.000000 C
   C1         1.0     0.931300      0.296800      0.796800     Biso  1.000000 C
   C1         1.0     0.068700      0.296800      0.796800     Biso  1.000000 C
   C1         1.0     0.931300      0.703200      0.203200     Biso  1.000000 C
   C1         1.0     0.203200      0.931300      0.296800     Biso  1.000000 C
   C1         1.0     0.796800      0.068700      0.703200     Biso  1.000000 C
   C1         1.0     0.796800      0.931300      0.703200     Biso  1.000000 C
   C1         1.0     0.203200      0.068700      0.296800     Biso  1.000000 C
   C1         1.0     0.203200      0.068700      0.703200     Biso  1.000000 C
   C1         1.0     0.796800      0.931300      0.296800     Biso  1.000000 C
   C1         1.0     0.796800      0.068700      0.296800     Biso  1.000000 C
   C1         1.0     0.203200      0.931300      0.703200     Biso  1.000000 C
   C1         1.0     0.203200      0.296800      0.068700     Biso  1.000000 C
   C1         1.0     0.796800      0.703200      0.931300     Biso  1.000000 C
   C1         1.0     0.796800      0.703200      0.068700     Biso  1.000000 C
   C1         1.0     0.203200      0.296800      0.931300     Biso  1.000000 C
   C1         1.0     0.203200      0.703200      0.931300     Biso  1.000000 C
   C1         1.0     0.796800      0.296800      0.068700     Biso  1.000000 C
   C1         1.0     0.796800      0.296800      0.931300     Biso  1.000000 C
   C1         1.0     0.203200      0.703200      0.068700     Biso  1.000000 C
   C1         1.0     0.296800      0.931300      0.796800     Biso  1.000000 C
   C1         1.0     0.703200      0.068700      0.203200     Biso  1.000000 C
   C1         1.0     0.703200      0.931300      0.203200     Biso  1.000000 C
   C1         1.0     0.296800      0.068700      0.796800     Biso  1.000000 C
   C1         1.0     0.703200      0.068700      0.796800     Biso  1.000000 C
   C1         1.0     0.296800      0.931300      0.203200     Biso  1.000000 C
   C1         1.0     0.296800      0.068700      0.203200     Biso  1.000000 C
   C1         1.0     0.703200      0.931300      0.796800     Biso  1.000000 C
   C1         1.0     0.931300      0.203200      0.703200     Biso  1.000000 C
   C1         1.0     0.068700      0.796800      0.296800     Biso  1.000000 C
   C1         1.0     0.931300      0.796800      0.296800     Biso  1.000000 C
   C1         1.0     0.068700      0.203200      0.703200     Biso  1.000000 C
   C1         1.0     0.068700      0.203200      0.296800     Biso  1.000000 C
   C1         1.0     0.931300      0.796800      0.703200     Biso  1.000000 C
   C1         1.0     0.068700      0.796800      0.703200     Biso  1.000000 C
   C1         1.0     0.931300      0.203200      0.296800     Biso  1.000000 C
   C1         1.0     0.296800      0.703200      0.431300     Biso  1.000000 C
   C1         1.0     0.703200      0.296800      0.568700     Biso  1.000000 C
   C1         1.0     0.703200      0.296800      0.431300     Biso  1.000000 C
   C1         1.0     0.296800      0.703200      0.568700     Biso  1.000000 C
   C1         1.0     0.703200      0.703200      0.568700     Biso  1.000000 C
   C1         1.0     0.296800      0.296800      0.431300     Biso  1.000000 C
   C1         1.0     0.296800      0.296800      0.568700     Biso  1.000000 C
   C1         1.0     0.703200      0.703200      0.431300     Biso  1.000000 C
   C1         1.0     0.203200      0.431300      0.796800     Biso  1.000000 C
   C1         1.0     0.796800      0.568700      0.203200     Biso  1.000000 C
   C1         1.0     0.796800      0.431300      0.203200     Biso  1.000000 C
   C1         1.0     0.203200      0.568700      0.796800     Biso  1.000000 C
   C1         1.0     0.203200      0.568700      0.203200     Biso  1.000000 C
   C1         1.0     0.796800      0.431300      0.796800     Biso  1.000000 C
   C1         1.0     0.796800      0.568700      0.796800     Biso  1.000000 C
   C1         1.0     0.203200      0.431300      0.203200     Biso  1.000000 C
   C1         1.0     0.203200      0.796800      0.568700     Biso  1.000000 C
   C1         1.0     0.796800      0.203200      0.431300     Biso  1.000000 C
   C1         1.0     0.796800      0.203200      0.568700     Biso  1.000000 C
   C1         1.0     0.203200      0.796800      0.431300     Biso  1.000000 C
   C1         1.0     0.203200      0.203200      0.431300     Biso  1.000000 C
   C1         1.0     0.796800      0.796800      0.568700     Biso  1.000000 C
   C1         1.0     0.796800      0.796800      0.431300     Biso  1.000000 C
   C1         1.0     0.203200      0.203200      0.568700     Biso  1.000000 C
   C1         1.0     0.296800      0.431300      0.296800     Biso  1.000000 C
   C1         1.0     0.703200      0.568700      0.703200     Biso  1.000000 C
   C1         1.0     0.703200      0.431300      0.703200     Biso  1.000000 C
   C1         1.0     0.296800      0.568700      0.296800     Biso  1.000000 C
   C1         1.0     0.703200      0.568700      0.296800     Biso  1.000000 C
   C1         1.0     0.296800      0.431300      0.703200     Biso  1.000000 C
   C1         1.0     0.296800      0.568700      0.703200     Biso  1.000000 C
   C1         1.0     0.703200      0.431300      0.296800     Biso  1.000000 C
   C1         1.0     0.431300      0.296800      0.703200     Biso  1.000000 C
   C1         1.0     0.568700      0.703200      0.296800     Biso  1.000000 C
   C1         1.0     0.431300      0.703200      0.296800     Biso  1.000000 C
   C1         1.0     0.568700      0.296800      0.703200     Biso  1.000000 C
   C1         1.0     0.568700      0.703200      0.703200     Biso  1.000000 C
   C1         1.0     0.431300      0.296800      0.296800     Biso  1.000000 C
   C1         1.0     0.568700      0.296800      0.296800     Biso  1.000000 C
   C1         1.0     0.431300      0.703200      0.703200     Biso  1.000000 C
   C1         1.0     0.431300      0.203200      0.203200     Biso  1.000000 C
   C1         1.0     0.568700      0.796800      0.796800     Biso  1.000000 C
   C1         1.0     0.431300      0.796800      0.796800     Biso  1.000000 C
   C1         1.0     0.568700      0.203200      0.203200     Biso  1.000000 C
   C1         1.0     0.568700      0.203200      0.796800     Biso  1.000000 C
   C1         1.0     0.431300      0.796800      0.203200     Biso  1.000000 C
   C1         1.0     0.568700      0.796800      0.203200     Biso  1.000000 C
   C1         1.0     0.431300      0.203200      0.796800     Biso  1.000000 C
   C2         1.0     0.322000      0.178000      0.887000     Biso  1.000000 C
   C2         1.0     0.678000      0.822000      0.113000     Biso  1.000000 C
   C2         1.0     0.678000      0.822000      0.887000     Biso  1.000000 C
   C2         1.0     0.322000      0.178000      0.113000     Biso  1.000000 C
   C2         1.0     0.678000      0.178000      0.113000     Biso  1.000000 C
   C2         1.0     0.322000      0.822000      0.887000     Biso  1.000000 C
   C2         1.0     0.322000      0.822000      0.113000     Biso  1.000000 C
   C2         1.0     0.678000      0.178000      0.887000     Biso  1.000000 C
   C2         1.0     0.887000      0.322000      0.178000     Biso  1.000000 C
   C2         1.0     0.113000      0.678000      0.822000     Biso  1.000000 C
   C2         1.0     0.887000      0.678000      0.822000     Biso  1.000000 C
   C2         1.0     0.113000      0.322000      0.178000     Biso  1.000000 C
   C2         1.0     0.113000      0.678000      0.178000     Biso  1.000000 C
   C2         1.0     0.887000      0.322000      0.822000     Biso  1.000000 C
   C2         1.0     0.113000      0.322000      0.822000     Biso  1.000000 C
   C2         1.0     0.887000      0.678000      0.178000     Biso  1.000000 C
   C2         1.0     0.178000      0.887000      0.322000     Biso  1.000000 C
   C2         1.0     0.822000      0.113000      0.678000     Biso  1.000000 C
   C2         1.0     0.822000      0.887000      0.678000     Biso  1.000000 C
   C2         1.0     0.178000      0.113000      0.322000     Biso  1.000000 C
   C2         1.0     0.178000      0.113000      0.678000     Biso  1.000000 C
   C2         1.0     0.822000      0.887000      0.322000     Biso  1.000000 C
   C2         1.0     0.822000      0.113000      0.322000     Biso  1.000000 C
   C2         1.0     0.178000      0.887000      0.678000     Biso  1.000000 C
   C2         1.0     0.178000      0.322000      0.113000     Biso  1.000000 C
   C2         1.0     0.822000      0.678000      0.887000     Biso  1.000000 C
   C2         1.0     0.822000      0.678000      0.113000     Biso  1.000000 C
   C2         1.0     0.178000      0.322000      0.887000     Biso  1.000000 C
   C2         1.0     0.178000      0.678000      0.887000     Biso  1.000000 C
   C2         1.0     0.822000      0.322000      0.113000     Biso  1.000000 C
   C2         1.0     0.822000      0.322000      0.887000     Biso  1.000000 C
   C2         1.0     0.178000      0.678000      0.113000     Biso  1.000000 C
   C2         1.0     0.322000      0.887000      0.822000     Biso  1.000000 C
   C2         1.0     0.678000      0.113000      0.178000     Biso  1.000000 C
   C2         1.0     0.678000      0.887000      0.178000     Biso  1.000000 C
   C2         1.0     0.322000      0.113000      0.822000     Biso  1.000000 C
   C2         1.0     0.678000      0.113000      0.822000     Biso  1.000000 C
   C2         1.0     0.322000      0.887000      0.178000     Biso  1.000000 C
   C2         1.0     0.322000      0.113000      0.178000     Biso  1.000000 C
   C2         1.0     0.678000      0.887000      0.822000     Biso  1.000000 C
   C2         1.0     0.887000      0.178000      0.678000     Biso  1.000000 C
   C2         1.0     0.113000      0.822000      0.322000     Biso  1.000000 C
   C2         1.0     0.887000      0.822000      0.322000     Biso  1.000000 C
   C2         1.0     0.113000      0.178000      0.678000     Biso  1.000000 C
   C2         1.0     0.113000      0.178000      0.322000     Biso  1.000000 C
   C2         1.0     0.887000      0.822000      0.678000     Biso  1.000000 C
   C2         1.0     0.113000      0.822000      0.678000     Biso  1.000000 C
   C2         1.0     0.887000      0.178000      0.322000     Biso  1.000000 C
   C2         1.0     0.322000      0.678000      0.387000     Biso  1.000000 C
   C2         1.0     0.678000      0.322000      0.613000     Biso  1.000000 C
   C2         1.0     0.678000      0.322000      0.387000     Biso  1.000000 C
   C2         1.0     0.322000      0.678000      0.613000     Biso  1.000000 C
   C2         1.0     0.678000      0.678000      0.613000     Biso  1.000000 C
   C2         1.0     0.322000      0.322000      0.387000     Biso  1.000000 C
   C2         1.0     0.322000      0.322000      0.613000     Biso  1.000000 C
   C2         1.0     0.678000      0.678000      0.387000     Biso  1.000000 C
   C2         1.0     0.178000      0.387000      0.822000     Biso  1.000000 C
   C2         1.0     0.822000      0.613000      0.178000     Biso  1.000000 C
   C2         1.0     0.822000      0.387000      0.178000     Biso  1.000000 C
   C2         1.0     0.178000      0.613000      0.822000     Biso  1.000000 C
   C2         1.0     0.178000      0.613000      0.178000     Biso  1.000000 C
   C2         1.0     0.822000      0.387000      0.822000     Biso  1.000000 C
   C2         1.0     0.822000      0.613000      0.822000     Biso  1.000000 C
   C2         1.0     0.178000      0.387000      0.178000     Biso  1.000000 C
   C2         1.0     0.178000      0.822000      0.613000     Biso  1.000000 C
   C2         1.0     0.822000      0.178000      0.387000     Biso  1.000000 C
   C2         1.0     0.822000      0.178000      0.613000     Biso  1.000000 C
   C2         1.0     0.178000      0.822000      0.387000     Biso  1.000000 C
   C2         1.0     0.178000      0.178000      0.387000     Biso  1.000000 C
   C2         1.0     0.822000      0.822000      0.613000     Biso  1.000000 C
   C2         1.0     0.822000      0.822000      0.387000     Biso  1.000000 C
   C2         1.0     0.178000      0.178000      0.613000     Biso  1.000000 C
   C2         1.0     0.322000      0.387000      0.322000     Biso  1.000000 C
   C2         1.0     0.678000      0.613000      0.678000     Biso  1.000000 C
   C2         1.0     0.678000      0.387000      0.678000     Biso  1.000000 C
   C2         1.0     0.322000      0.613000      0.322000     Biso  1.000000 C
   C2         1.0     0.678000      0.613000      0.322000     Biso  1.000000 C
   C2         1.0     0.322000      0.387000      0.678000     Biso  1.000000 C
   C2         1.0     0.322000      0.613000      0.678000     Biso  1.000000 C
   C2         1.0     0.678000      0.387000      0.322000     Biso  1.000000 C
   C2         1.0     0.387000      0.322000      0.678000     Biso  1.000000 C
   C2         1.0     0.613000      0.678000      0.322000     Biso  1.000000 C
   C2         1.0     0.387000      0.678000      0.322000     Biso  1.000000 C
   C2         1.0     0.613000      0.322000      0.678000     Biso  1.000000 C
   C2         1.0     0.613000      0.678000      0.678000     Biso  1.000000 C
   C2         1.0     0.387000      0.322000      0.322000     Biso  1.000000 C
   C2         1.0     0.613000      0.322000      0.322000     Biso  1.000000 C
   C2         1.0     0.387000      0.678000      0.678000     Biso  1.000000 C
   C2         1.0     0.387000      0.178000      0.178000     Biso  1.000000 C
   C2         1.0     0.613000      0.822000      0.822000     Biso  1.000000 C
   C2         1.0     0.387000      0.822000      0.822000     Biso  1.000000 C
   C2         1.0     0.613000      0.178000      0.178000     Biso  1.000000 C
   C2         1.0     0.613000      0.178000      0.822000     Biso  1.000000 C
   C2         1.0     0.387000      0.822000      0.178000     Biso  1.000000 C
   C2         1.0     0.613000      0.822000      0.178000     Biso  1.000000 C
   C2         1.0     0.387000      0.178000      0.822000     Biso  1.000000 C
   C3         1.0     0.365500      0.199400      0.865500     Biso  1.000000 C
   C3         1.0     0.634500      0.800600      0.134500     Biso  1.000000 C
   C3         1.0     0.634500      0.800600      0.865500     Biso  1.000000 C
   C3         1.0     0.365500      0.199400      0.134500     Biso  1.000000 C
   C3         1.0     0.634500      0.199400      0.134500     Biso  1.000000 C
   C3         1.0     0.365500      0.800600      0.865500     Biso  1.000000 C
   C3         1.0     0.365500      0.800600      0.134500     Biso  1.000000 C
   C3         1.0     0.634500      0.199400      0.865500     Biso  1.000000 C
   C3         1.0     0.865500      0.365500      0.199400     Biso  1.000000 C
   C3         1.0     0.134500      0.634500      0.800600     Biso  1.000000 C
   C3         1.0     0.865500      0.634500      0.800600     Biso  1.000000 C
   C3         1.0     0.134500      0.365500      0.199400     Biso  1.000000 C
   C3         1.0     0.134500      0.634500      0.199400     Biso  1.000000 C
   C3         1.0     0.865500      0.365500      0.800600     Biso  1.000000 C
   C3         1.0     0.134500      0.365500      0.800600     Biso  1.000000 C
   C3         1.0     0.865500      0.634500      0.199400     Biso  1.000000 C
   C3         1.0     0.199400      0.865500      0.365500     Biso  1.000000 C
   C3         1.0     0.800600      0.134500      0.634500     Biso  1.000000 C
   C3         1.0     0.800600      0.865500      0.634500     Biso  1.000000 C
   C3         1.0     0.199400      0.134500      0.365500     Biso  1.000000 C
   C3         1.0     0.199400      0.134500      0.634500     Biso  1.000000 C
   C3         1.0     0.800600      0.865500      0.365500     Biso  1.000000 C
   C3         1.0     0.800600      0.134500      0.365500     Biso  1.000000 C
   C3         1.0     0.199400      0.865500      0.634500     Biso  1.000000 C
   C3         1.0     0.199400      0.365500      0.134500     Biso  1.000000 C
   C3         1.0     0.800600      0.634500      0.865500     Biso  1.000000 C
   C3         1.0     0.800600      0.634500      0.134500     Biso  1.000000 C
   C3         1.0     0.199400      0.365500      0.865500     Biso  1.000000 C
   C3         1.0     0.199400      0.634500      0.865500     Biso  1.000000 C
   C3         1.0     0.800600      0.365500      0.134500     Biso  1.000000 C
   C3         1.0     0.800600      0.365500      0.865500     Biso  1.000000 C
   C3         1.0     0.199400      0.634500      0.134500     Biso  1.000000 C
   C3         1.0     0.365500      0.865500      0.800600     Biso  1.000000 C
   C3         1.0     0.634500      0.134500      0.199400     Biso  1.000000 C
   C3         1.0     0.634500      0.865500      0.199400     Biso  1.000000 C
   C3         1.0     0.365500      0.134500      0.800600     Biso  1.000000 C
   C3         1.0     0.634500      0.134500      0.800600     Biso  1.000000 C
   C3         1.0     0.365500      0.865500      0.199400     Biso  1.000000 C
   C3         1.0     0.365500      0.134500      0.199400     Biso  1.000000 C
   C3         1.0     0.634500      0.865500      0.800600     Biso  1.000000 C
   C3         1.0     0.865500      0.199400      0.634500     Biso  1.000000 C
   C3         1.0     0.134500      0.800600      0.365500     Biso  1.000000 C
   C3         1.0     0.865500      0.800600      0.365500     Biso  1.000000 C
   C3         1.0     0.134500      0.199400      0.634500     Biso  1.000000 C
   C3         1.0     0.134500      0.199400      0.365500     Biso  1.000000 C
   C3         1.0     0.865500      0.800600      0.634500     Biso  1.000000 C
   C3         1.0     0.134500      0.800600      0.634500     Biso  1.000000 C
   C3         1.0     0.865500      0.199400      0.365500     Biso  1.000000 C
   C3         1.0     0.365500      0.699400      0.365500     Biso  1.000000 C
   C3         1.0     0.634500      0.300600      0.634500     Biso  1.000000 C
   C3         1.0     0.634500      0.300600      0.365500     Biso  1.000000 C
   C3         1.0     0.365500      0.699400      0.634500     Biso  1.000000 C
   C3         1.0     0.634500      0.699400      0.634500     Biso  1.000000 C
   C3         1.0     0.365500      0.300600      0.365500     Biso  1.000000 C
   C3         1.0     0.365500      0.300600      0.634500     Biso  1.000000 C
   C3         1.0     0.634500      0.699400      0.365500     Biso  1.000000 C
   C3         1.0     0.865500      0.865500      0.699400     Biso  1.000000 C
   C3         1.0     0.134500      0.134500      0.300600     Biso  1.000000 C
   C3         1.0     0.865500      0.134500      0.300600     Biso  1.000000 C
   C3         1.0     0.134500      0.865500      0.699400     Biso  1.000000 C
   C3         1.0     0.134500      0.134500      0.699400     Biso  1.000000 C
   C3         1.0     0.865500      0.865500      0.300600     Biso  1.000000 C
   C3         1.0     0.134500      0.865500      0.300600     Biso  1.000000 C
   C3         1.0     0.865500      0.134500      0.699400     Biso  1.000000 C
   C3         1.0     0.365500      0.365500      0.300600     Biso  1.000000 C
   C3         1.0     0.634500      0.634500      0.699400     Biso  1.000000 C
   C3         1.0     0.634500      0.365500      0.699400     Biso  1.000000 C
   C3         1.0     0.365500      0.634500      0.300600     Biso  1.000000 C
   C3         1.0     0.634500      0.634500      0.300600     Biso  1.000000 C
   C3         1.0     0.365500      0.365500      0.699400     Biso  1.000000 C
   C3         1.0     0.365500      0.634500      0.699400     Biso  1.000000 C
   C3         1.0     0.634500      0.365500      0.300600     Biso  1.000000 C
   C3         1.0     0.865500      0.699400      0.134500     Biso  1.000000 C
   C3         1.0     0.134500      0.300600      0.865500     Biso  1.000000 C
   C3         1.0     0.865500      0.300600      0.865500     Biso  1.000000 C
   C3         1.0     0.134500      0.699400      0.134500     Biso  1.000000 C
   C3         1.0     0.134500      0.699400      0.865500     Biso  1.000000 C
   C3         1.0     0.865500      0.300600      0.134500     Biso  1.000000 C
   C3         1.0     0.134500      0.300600      0.134500     Biso  1.000000 C
   C3         1.0     0.865500      0.699400      0.865500     Biso  1.000000 C
   C3         1.0     0.699400      0.865500      0.865500     Biso  1.000000 C
   C3         1.0     0.300600      0.134500      0.134500     Biso  1.000000 C
   C3         1.0     0.300600      0.865500      0.134500     Biso  1.000000 C
   C3         1.0     0.699400      0.134500      0.865500     Biso  1.000000 C
   C3         1.0     0.699400      0.134500      0.134500     Biso  1.000000 C
   C3         1.0     0.300600      0.865500      0.865500     Biso  1.000000 C
   C3         1.0     0.300600      0.134500      0.865500     Biso  1.000000 C
   C3         1.0     0.699400      0.865500      0.134500     Biso  1.000000 C
   C3         1.0     0.699400      0.365500      0.634500     Biso  1.000000 C
   C3         1.0     0.300600      0.634500      0.365500     Biso  1.000000 C
   C3         1.0     0.300600      0.634500      0.634500     Biso  1.000000 C
   C3         1.0     0.699400      0.365500      0.365500     Biso  1.000000 C
   C3         1.0     0.699400      0.634500      0.365500     Biso  1.000000 C
   C3         1.0     0.300600      0.365500      0.634500     Biso  1.000000 C
   C3         1.0     0.300600      0.365500      0.365500     Biso  1.000000 C
   C3         1.0     0.699400      0.634500      0.634500     Biso  1.000000 C
   H1         1.0     0.380200      0.228000      0.880200     Biso  1.000000 H
   H1         1.0     0.619800      0.772000      0.119800     Biso  1.000000 H
   H1         1.0     0.619800      0.772000      0.880200     Biso  1.000000 H
   H1         1.0     0.380200      0.228000      0.119800     Biso  1.000000 H
   H1         1.0     0.619800      0.228000      0.119800     Biso  1.000000 H
   H1         1.0     0.380200      0.772000      0.880200     Biso  1.000000 H
   H1         1.0     0.380200      0.772000      0.119800     Biso  1.000000 H
   H1         1.0     0.619800      0.228000      0.880200     Biso  1.000000 H
   H1         1.0     0.880200      0.380200      0.228000     Biso  1.000000 H
   H1         1.0     0.119800      0.619800      0.772000     Biso  1.000000 H
   H1         1.0     0.880200      0.619800      0.772000     Biso  1.000000 H
   H1         1.0     0.119800      0.380200      0.228000     Biso  1.000000 H
   H1         1.0     0.119800      0.619800      0.228000     Biso  1.000000 H
   H1         1.0     0.880200      0.380200      0.772000     Biso  1.000000 H
   H1         1.0     0.119800      0.380200      0.772000     Biso  1.000000 H
   H1         1.0     0.880200      0.619800      0.228000     Biso  1.000000 H
   H1         1.0     0.228000      0.880200      0.380200     Biso  1.000000 H
   H1         1.0     0.772000      0.119800      0.619800     Biso  1.000000 H
   H1         1.0     0.772000      0.880200      0.619800     Biso  1.000000 H
   H1         1.0     0.228000      0.119800      0.380200     Biso  1.000000 H
   H1         1.0     0.228000      0.119800      0.619800     Biso  1.000000 H
   H1         1.0     0.772000      0.880200      0.380200     Biso  1.000000 H
   H1         1.0     0.772000      0.119800      0.380200     Biso  1.000000 H
   H1         1.0     0.228000      0.880200      0.619800     Biso  1.000000 H
   H1         1.0     0.228000      0.380200      0.119800     Biso  1.000000 H
   H1         1.0     0.772000      0.619800      0.880200     Biso  1.000000 H
   H1         1.0     0.772000      0.619800      0.119800     Biso  1.000000 H
   H1         1.0     0.228000      0.380200      0.880200     Biso  1.000000 H
   H1         1.0     0.228000      0.619800      0.880200     Biso  1.000000 H
   H1         1.0     0.772000      0.380200      0.119800     Biso  1.000000 H
   H1         1.0     0.772000      0.380200      0.880200     Biso  1.000000 H
   H1         1.0     0.228000      0.619800      0.119800     Biso  1.000000 H
   H1         1.0     0.380200      0.880200      0.772000     Biso  1.000000 H
   H1         1.0     0.619800      0.119800      0.228000     Biso  1.000000 H
   H1         1.0     0.619800      0.880200      0.228000     Biso  1.000000 H
   H1         1.0     0.380200      0.119800      0.772000     Biso  1.000000 H
   H1         1.0     0.619800      0.119800      0.772000     Biso  1.000000 H
   H1         1.0     0.380200      0.880200      0.228000     Biso  1.000000 H
   H1         1.0     0.380200      0.119800      0.228000     Biso  1.000000 H
   H1         1.0     0.619800      0.880200      0.772000     Biso  1.000000 H
   H1         1.0     0.880200      0.228000      0.619800     Biso  1.000000 H
   H1         1.0     0.119800      0.772000      0.380200     Biso  1.000000 H
   H1         1.0     0.880200      0.772000      0.380200     Biso  1.000000 H
   H1         1.0     0.119800      0.228000      0.619800     Biso  1.000000 H
   H1         1.0     0.119800      0.228000      0.380200     Biso  1.000000 H
   H1         1.0     0.880200      0.772000      0.619800     Biso  1.000000 H
   H1         1.0     0.119800      0.772000      0.619800     Biso  1.000000 H
   H1         1.0     0.880200      0.228000      0.380200     Biso  1.000000 H
   H1         1.0     0.380200      0.728000      0.380200     Biso  1.000000 H
   H1         1.0     0.619800      0.272000      0.619800     Biso  1.000000 H
   H1         1.0     0.619800      0.272000      0.380200     Biso  1.000000 H
   H1         1.0     0.380200      0.728000      0.619800     Biso  1.000000 H
   H1         1.0     0.619800      0.728000      0.619800     Biso  1.000000 H
   H1         1.0     0.380200      0.272000      0.380200     Biso  1.000000 H
   H1         1.0     0.380200      0.272000      0.619800     Biso  1.000000 H
   H1         1.0     0.619800      0.728000      0.380200     Biso  1.000000 H
   H1         1.0     0.880200      0.880200      0.728000     Biso  1.000000 H
   H1         1.0     0.119800      0.119800      0.272000     Biso  1.000000 H
   H1         1.0     0.880200      0.119800      0.272000     Biso  1.000000 H
   H1         1.0     0.119800      0.880200      0.728000     Biso  1.000000 H
   H1         1.0     0.119800      0.119800      0.728000     Biso  1.000000 H
   H1         1.0     0.880200      0.880200      0.272000     Biso  1.000000 H
   H1         1.0     0.119800      0.880200      0.272000     Biso  1.000000 H
   H1         1.0     0.880200      0.119800      0.728000     Biso  1.000000 H
   H1         1.0     0.380200      0.380200      0.272000     Biso  1.000000 H
   H1         1.0     0.619800      0.619800      0.728000     Biso  1.000000 H
   H1         1.0     0.619800      0.380200      0.728000     Biso  1.000000 H
   H1         1.0     0.380200      0.619800      0.272000     Biso  1.000000 H
   H1         1.0     0.619800      0.619800      0.272000     Biso  1.000000 H
   H1         1.0     0.380200      0.380200      0.728000     Biso  1.000000 H
   H1         1.0     0.380200      0.619800      0.728000     Biso  1.000000 H
   H1         1.0     0.619800      0.380200      0.272000     Biso  1.000000 H
   H1         1.0     0.880200      0.728000      0.119800     Biso  1.000000 H
   H1         1.0     0.119800      0.272000      0.880200     Biso  1.000000 H
   H1         1.0     0.880200      0.272000      0.880200     Biso  1.000000 H
   H1         1.0     0.119800      0.728000      0.119800     Biso  1.000000 H
   H1         1.0     0.119800      0.728000      0.880200     Biso  1.000000 H
   H1         1.0     0.880200      0.272000      0.119800     Biso  1.000000 H
   H1         1.0     0.119800      0.272000      0.119800     Biso  1.000000 H
   H1         1.0     0.880200      0.728000      0.880200     Biso  1.000000 H
   H1         1.0     0.728000      0.880200      0.880200     Biso  1.000000 H
   H1         1.0     0.272000      0.119800      0.119800     Biso  1.000000 H
   H1         1.0     0.272000      0.880200      0.119800     Biso  1.000000 H
   H1         1.0     0.728000      0.119800      0.880200     Biso  1.000000 H
   H1         1.0     0.728000      0.119800      0.119800     Biso  1.000000 H
   H1         1.0     0.272000      0.880200      0.880200     Biso  1.000000 H
   H1         1.0     0.272000      0.119800      0.880200     Biso  1.000000 H
   H1         1.0     0.728000      0.880200      0.119800     Biso  1.000000 H
   H1         1.0     0.728000      0.380200      0.619800     Biso  1.000000 H
   H1         1.0     0.272000      0.619800      0.380200     Biso  1.000000 H
   H1         1.0     0.272000      0.619800      0.619800     Biso  1.000000 H
   H1         1.0     0.728000      0.380200      0.380200     Biso  1.000000 H
   H1         1.0     0.728000      0.619800      0.380200     Biso  1.000000 H
   H1         1.0     0.272000      0.380200      0.619800     Biso  1.000000 H
   H1         1.0     0.272000      0.380200      0.380200     Biso  1.000000 H
   H1         1.0     0.728000      0.619800      0.619800     Biso  1.000000 H
