#======================================================================

# CRYSTAL DATA

#----------------------------------------------------------------------

data_VESTA_phase_1


_chemical_name_common                  ''
_cell_length_a                         26.28791
_cell_length_b                         26.28791
_cell_length_c                         26.28791
_cell_angle_alpha                      90
_cell_angle_beta                       90
_cell_angle_gamma                      90
_space_group_name_H-M_alt              'P 1'
_space_group_IT_number                 1

loop_
_space_group_symop_operation_xyz
   'x, y, z'

loop_
   _atom_site_label
   _atom_site_occupancy
   _atom_site_fract_x
   _atom_site_fract_y
   _atom_site_fract_z
   _atom_site_adp_type
   _atom_site_B_iso_or_equiv
   _atom_site_type_symbol
   Cu1        1.0     0.283220      0.283220      0.000000     Biso  1.000000 Cu
   Cu1        1.0     0.716780      0.716780      0.000000     Biso  1.000000 Cu
   Cu1        1.0     0.716780      0.283220      0.000000     Biso  1.000000 Cu
   Cu1        1.0     0.283220      0.716780      0.000000     Biso  1.000000 Cu
   Cu1        1.0     0.000000      0.283220      0.283220     Biso  1.000000 Cu
   Cu1        1.0     0.000000      0.716780      0.716780     Biso  1.000000 Cu
   Cu1        1.0     0.000000      0.716780      0.283220     Biso  1.000000 Cu
   Cu1        1.0     0.000000      0.283220      0.716780     Biso  1.000000 Cu
   Cu1        1.0     0.283220      0.000000      0.283220     Biso  1.000000 Cu
   Cu1        1.0     0.716780      0.000000      0.716780     Biso  1.000000 Cu
   Cu1        1.0     0.283220      0.000000      0.716780     Biso  1.000000 Cu
   Cu1        1.0     0.716780      0.000000      0.283220     Biso  1.000000 Cu
   Cu1        1.0     0.283220      0.783220      0.500000     Biso  1.000000 Cu
   Cu1        1.0     0.716780      0.216780      0.500000     Biso  1.000000 Cu
   Cu1        1.0     0.716780      0.783220      0.500000     Biso  1.000000 Cu
   Cu1        1.0     0.283220      0.216780      0.500000     Biso  1.000000 Cu
   Cu1        1.0     0.000000      0.783220      0.783220     Biso  1.000000 Cu
   Cu1        1.0     0.000000      0.216780      0.216780     Biso  1.000000 Cu
   Cu1        1.0     0.000000      0.216780      0.783220     Biso  1.000000 Cu
   Cu1        1.0     0.000000      0.783220      0.216780     Biso  1.000000 Cu
   Cu1        1.0     0.283220      0.500000      0.783220     Biso  1.000000 Cu
   Cu1        1.0     0.716780      0.500000      0.216780     Biso  1.000000 Cu
   Cu1        1.0     0.283220      0.500000      0.216780     Biso  1.000000 Cu
   Cu1        1.0     0.716780      0.500000      0.783220     Biso  1.000000 Cu
   Cu1        1.0     0.783220      0.283220      0.500000     Biso  1.000000 Cu
   Cu1        1.0     0.216780      0.716780      0.500000     Biso  1.000000 Cu
   Cu1        1.0     0.216780      0.283220      0.500000     Biso  1.000000 Cu
   Cu1        1.0     0.783220      0.716780      0.500000     Biso  1.000000 Cu
   Cu1        1.0     0.500000      0.283220      0.783220     Biso  1.000000 Cu
   Cu1        1.0     0.500000      0.716780      0.216780     Biso  1.000000 Cu
   Cu1        1.0     0.500000      0.716780      0.783220     Biso  1.000000 Cu
   Cu1        1.0     0.500000      0.283220      0.216780     Biso  1.000000 Cu
   Cu1        1.0     0.783220      0.000000      0.783220     Biso  1.000000 Cu
   Cu1        1.0     0.216780      0.000000      0.216780     Biso  1.000000 Cu
   Cu1        1.0     0.783220      0.000000      0.216780     Biso  1.000000 Cu
   Cu1        1.0     0.216780      0.000000      0.783220     Biso  1.000000 Cu
   Cu1        1.0     0.783220      0.783220      0.000000     Biso  1.000000 Cu
   Cu1        1.0     0.216780      0.216780      0.000000     Biso  1.000000 Cu
   Cu1        1.0     0.216780      0.783220      0.000000     Biso  1.000000 Cu
   Cu1        1.0     0.783220      0.216780      0.000000     Biso  1.000000 Cu
   Cu1        1.0     0.500000      0.783220      0.283220     Biso  1.000000 Cu
   Cu1        1.0     0.500000      0.216780      0.716780     Biso  1.000000 Cu
   Cu1        1.0     0.500000      0.216780      0.283220     Biso  1.000000 Cu
   Cu1        1.0     0.500000      0.783220      0.716780     Biso  1.000000 Cu
   Cu1        1.0     0.783220      0.500000      0.283220     Biso  1.000000 Cu
   Cu1        1.0     0.216780      0.500000      0.716780     Biso  1.000000 Cu
   Cu1        1.0     0.783220      0.500000      0.716780     Biso  1.000000 Cu
   Cu1        1.0     0.216780      0.500000      0.283220     Biso  1.000000 Cu
   O1         1.0     0.316980      0.244210      0.947490     Biso  1.000000 O
   O1         1.0     0.683020      0.755790      0.052510     Biso  1.000000 O
   O1         1.0     0.683020      0.755790      0.947490     Biso  1.000000 O
   O1         1.0     0.316980      0.244210      0.052510     Biso  1.000000 O
   O1         1.0     0.683020      0.244210      0.052510     Biso  1.000000 O
   O1         1.0     0.316980      0.755790      0.947490     Biso  1.000000 O
   O1         1.0     0.316980      0.755790      0.052510     Biso  1.000000 O
   O1         1.0     0.683020      0.244210      0.947490     Biso  1.000000 O
   O1         1.0     0.947490      0.316980      0.244210     Biso  1.000000 O
   O1         1.0     0.052510      0.683020      0.755790     Biso  1.000000 O
   O1         1.0     0.947490      0.683020      0.755790     Biso  1.000000 O
   O1         1.0     0.052510      0.316980      0.244210     Biso  1.000000 O
   O1         1.0     0.052510      0.683020      0.244210     Biso  1.000000 O
   O1         1.0     0.947490      0.316980      0.755790     Biso  1.000000 O
   O1         1.0     0.052510      0.316980      0.755790     Biso  1.000000 O
   O1         1.0     0.947490      0.683020      0.244210     Biso  1.000000 O
   O1         1.0     0.244210      0.947490      0.316980     Biso  1.000000 O
   O1         1.0     0.755790      0.052510      0.683020     Biso  1.000000 O
   O1         1.0     0.755790      0.947490      0.683020     Biso  1.000000 O
   O1         1.0     0.244210      0.052510      0.316980     Biso  1.000000 O
   O1         1.0     0.244210      0.052510      0.683020     Biso  1.000000 O
   O1         1.0     0.755790      0.947490      0.316980     Biso  1.000000 O
   O1         1.0     0.755790      0.052510      0.316980     Biso  1.000000 O
   O1         1.0     0.244210      0.947490      0.683020     Biso  1.000000 O
   O1         1.0     0.244210      0.316980      0.052510     Biso  1.000000 O
   O1         1.0     0.755790      0.683020      0.947490     Biso  1.000000 O
   O1         1.0     0.755790      0.683020      0.052510     Biso  1.000000 O
   O1         1.0     0.244210      0.316980      0.947490     Biso  1.000000 O
   O1         1.0     0.244210      0.683020      0.947490     Biso  1.000000 O
   O1         1.0     0.755790      0.316980      0.052510     Biso  1.000000 O
   O1         1.0     0.755790      0.316980      0.947490     Biso  1.000000 O
   O1         1.0     0.244210      0.683020      0.052510     Biso  1.000000 O
   O1         1.0     0.316980      0.947490      0.755790     Biso  1.000000 O
   O1         1.0     0.683020      0.052510      0.244210     Biso  1.000000 O
   O1         1.0     0.683020      0.947490      0.244210     Biso  1.000000 O
   O1         1.0     0.316980      0.052510      0.755790     Biso  1.000000 O
   O1         1.0     0.683020      0.052510      0.755790     Biso  1.000000 O
   O1         1.0     0.316980      0.947490      0.244210     Biso  1.000000 O
   O1         1.0     0.316980      0.052510      0.244210     Biso  1.000000 O
   O1         1.0     0.683020      0.947490      0.755790     Biso  1.000000 O
   O1         1.0     0.947490      0.244210      0.683020     Biso  1.000000 O
   O1         1.0     0.052510      0.755790      0.316980     Biso  1.000000 O
   O1         1.0     0.947490      0.755790      0.316980     Biso  1.000000 O
   O1         1.0     0.052510      0.244210      0.683020     Biso  1.000000 O
   O1         1.0     0.052510      0.244210      0.316980     Biso  1.000000 O
   O1         1.0     0.947490      0.755790      0.683020     Biso  1.000000 O
   O1         1.0     0.052510      0.755790      0.683020     Biso  1.000000 O
   O1         1.0     0.947490      0.244210      0.316980     Biso  1.000000 O
   O1         1.0     0.316980      0.744210      0.447490     Biso  1.000000 O
   O1         1.0     0.683020      0.255790      0.552510     Biso  1.000000 O
   O1         1.0     0.683020      0.255790      0.447490     Biso  1.000000 O
   O1         1.0     0.316980      0.744210      0.552510     Biso  1.000000 O
   O1         1.0     0.683020      0.744210      0.552510     Biso  1.000000 O
   O1         1.0     0.316980      0.255790      0.447490     Biso  1.000000 O
   O1         1.0     0.316980      0.255790      0.552510     Biso  1.000000 O
   O1         1.0     0.683020      0.744210      0.447490     Biso  1.000000 O
   O1         1.0     0.947490      0.816980      0.744210     Biso  1.000000 O
   O1         1.0     0.052510      0.183020      0.255790     Biso  1.000000 O
   O1         1.0     0.947490      0.183020      0.255790     Biso  1.000000 O
   O1         1.0     0.052510      0.816980      0.744210     Biso  1.000000 O
   O1         1.0     0.052510      0.183020      0.744210     Biso  1.000000 O
   O1         1.0     0.947490      0.816980      0.255790     Biso  1.000000 O
   O1         1.0     0.052510      0.816980      0.255790     Biso  1.000000 O
   O1         1.0     0.947490      0.183020      0.744210     Biso  1.000000 O
   O1         1.0     0.244210      0.447490      0.816980     Biso  1.000000 O
   O1         1.0     0.755790      0.552510      0.183020     Biso  1.000000 O
   O1         1.0     0.755790      0.447490      0.183020     Biso  1.000000 O
   O1         1.0     0.244210      0.552510      0.816980     Biso  1.000000 O
   O1         1.0     0.244210      0.552510      0.183020     Biso  1.000000 O
   O1         1.0     0.755790      0.447490      0.816980     Biso  1.000000 O
   O1         1.0     0.755790      0.552510      0.816980     Biso  1.000000 O
   O1         1.0     0.244210      0.447490      0.183020     Biso  1.000000 O
   O1         1.0     0.244210      0.816980      0.552510     Biso  1.000000 O
   O1         1.0     0.755790      0.183020      0.447490     Biso  1.000000 O
   O1         1.0     0.755790      0.183020      0.552510     Biso  1.000000 O
   O1         1.0     0.244210      0.816980      0.447490     Biso  1.000000 O
   O1         1.0     0.244210      0.183020      0.447490     Biso  1.000000 O
   O1         1.0     0.755790      0.816980      0.552510     Biso  1.000000 O
   O1         1.0     0.755790      0.816980      0.447490     Biso  1.000000 O
   O1         1.0     0.244210      0.183020      0.552510     Biso  1.000000 O
   O1         1.0     0.316980      0.447490      0.255790     Biso  1.000000 O
   O1         1.0     0.683020      0.552510      0.744210     Biso  1.000000 O
   O1         1.0     0.683020      0.447490      0.744210     Biso  1.000000 O
   O1         1.0     0.316980      0.552510      0.255790     Biso  1.000000 O
   O1         1.0     0.683020      0.552510      0.255790     Biso  1.000000 O
   O1         1.0     0.316980      0.447490      0.744210     Biso  1.000000 O
   O1         1.0     0.316980      0.552510      0.744210     Biso  1.000000 O
   O1         1.0     0.683020      0.447490      0.255790     Biso  1.000000 O
   O1         1.0     0.947490      0.744210      0.183020     Biso  1.000000 O
   O1         1.0     0.052510      0.255790      0.816980     Biso  1.000000 O
   O1         1.0     0.947490      0.255790      0.816980     Biso  1.000000 O
   O1         1.0     0.052510      0.744210      0.183020     Biso  1.000000 O
   O1         1.0     0.052510      0.744210      0.816980     Biso  1.000000 O
   O1         1.0     0.947490      0.255790      0.183020     Biso  1.000000 O
   O1         1.0     0.052510      0.255790      0.183020     Biso  1.000000 O
   O1         1.0     0.947490      0.744210      0.816980     Biso  1.000000 O
   O1         1.0     0.816980      0.244210      0.447490     Biso  1.000000 O
   O1         1.0     0.183020      0.755790      0.552510     Biso  1.000000 O
   O1         1.0     0.183020      0.755790      0.447490     Biso  1.000000 O
   O1         1.0     0.816980      0.244210      0.552510     Biso  1.000000 O
   O1         1.0     0.183020      0.244210      0.552510     Biso  1.000000 O
   O1         1.0     0.816980      0.755790      0.447490     Biso  1.000000 O
   O1         1.0     0.816980      0.755790      0.552510     Biso  1.000000 O
   O1         1.0     0.183020      0.244210      0.447490     Biso  1.000000 O
   O1         1.0     0.447490      0.316980      0.744210     Biso  1.000000 O
   O1         1.0     0.552510      0.683020      0.255790     Biso  1.000000 O
   O1         1.0     0.447490      0.683020      0.255790     Biso  1.000000 O
   O1         1.0     0.552510      0.316980      0.744210     Biso  1.000000 O
   O1         1.0     0.552510      0.683020      0.744210     Biso  1.000000 O
   O1         1.0     0.447490      0.316980      0.255790     Biso  1.000000 O
   O1         1.0     0.552510      0.316980      0.255790     Biso  1.000000 O
   O1         1.0     0.447490      0.683020      0.744210     Biso  1.000000 O
   O1         1.0     0.744210      0.947490      0.816980     Biso  1.000000 O
   O1         1.0     0.255790      0.052510      0.183020     Biso  1.000000 O
   O1         1.0     0.255790      0.947490      0.183020     Biso  1.000000 O
   O1         1.0     0.744210      0.052510      0.816980     Biso  1.000000 O
   O1         1.0     0.744210      0.052510      0.183020     Biso  1.000000 O
   O1         1.0     0.255790      0.947490      0.816980     Biso  1.000000 O
   O1         1.0     0.255790      0.052510      0.816980     Biso  1.000000 O
   O1         1.0     0.744210      0.947490      0.183020     Biso  1.000000 O
   O1         1.0     0.744210      0.316980      0.552510     Biso  1.000000 O
   O1         1.0     0.255790      0.683020      0.447490     Biso  1.000000 O
   O1         1.0     0.255790      0.683020      0.552510     Biso  1.000000 O
   O1         1.0     0.744210      0.316980      0.447490     Biso  1.000000 O
   O1         1.0     0.744210      0.683020      0.447490     Biso  1.000000 O
   O1         1.0     0.255790      0.316980      0.552510     Biso  1.000000 O
   O1         1.0     0.255790      0.316980      0.447490     Biso  1.000000 O
   O1         1.0     0.744210      0.683020      0.552510     Biso  1.000000 O
   O1         1.0     0.816980      0.947490      0.255790     Biso  1.000000 O
   O1         1.0     0.183020      0.052510      0.744210     Biso  1.000000 O
   O1         1.0     0.183020      0.947490      0.744210     Biso  1.000000 O
   O1         1.0     0.816980      0.052510      0.255790     Biso  1.000000 O
   O1         1.0     0.183020      0.052510      0.255790     Biso  1.000000 O
   O1         1.0     0.816980      0.947490      0.744210     Biso  1.000000 O
   O1         1.0     0.816980      0.052510      0.744210     Biso  1.000000 O
   O1         1.0     0.183020      0.947490      0.255790     Biso  1.000000 O
   O1         1.0     0.447490      0.244210      0.183020     Biso  1.000000 O
   O1         1.0     0.552510      0.755790      0.816980     Biso  1.000000 O
   O1         1.0     0.447490      0.755790      0.816980     Biso  1.000000 O
   O1         1.0     0.552510      0.244210      0.183020     Biso  1.000000 O
   O1         1.0     0.552510      0.244210      0.816980     Biso  1.000000 O
   O1         1.0     0.447490      0.755790      0.183020     Biso  1.000000 O
   O1         1.0     0.552510      0.755790      0.183020     Biso  1.000000 O
   O1         1.0     0.447490      0.244210      0.816980     Biso  1.000000 O
   O1         1.0     0.816980      0.744210      0.947490     Biso  1.000000 O
   O1         1.0     0.183020      0.255790      0.052510     Biso  1.000000 O
   O1         1.0     0.183020      0.255790      0.947490     Biso  1.000000 O
   O1         1.0     0.816980      0.744210      0.052510     Biso  1.000000 O
   O1         1.0     0.183020      0.744210      0.052510     Biso  1.000000 O
   O1         1.0     0.816980      0.255790      0.947490     Biso  1.000000 O
   O1         1.0     0.816980      0.255790      0.052510     Biso  1.000000 O
   O1         1.0     0.183020      0.744210      0.947490     Biso  1.000000 O
   O1         1.0     0.447490      0.816980      0.244210     Biso  1.000000 O
   O1         1.0     0.552510      0.183020      0.755790     Biso  1.000000 O
   O1         1.0     0.447490      0.183020      0.755790     Biso  1.000000 O
   O1         1.0     0.552510      0.816980      0.244210     Biso  1.000000 O
   O1         1.0     0.552510      0.183020      0.244210     Biso  1.000000 O
   O1         1.0     0.447490      0.816980      0.755790     Biso  1.000000 O
   O1         1.0     0.552510      0.816980      0.755790     Biso  1.000000 O
   O1         1.0     0.447490      0.183020      0.244210     Biso  1.000000 O
   O1         1.0     0.744210      0.447490      0.316980     Biso  1.000000 O
   O1         1.0     0.255790      0.552510      0.683020     Biso  1.000000 O
   O1         1.0     0.255790      0.447490      0.683020     Biso  1.000000 O
   O1         1.0     0.744210      0.552510      0.316980     Biso  1.000000 O
   O1         1.0     0.744210      0.552510      0.683020     Biso  1.000000 O
   O1         1.0     0.255790      0.447490      0.316980     Biso  1.000000 O
   O1         1.0     0.255790      0.552510      0.316980     Biso  1.000000 O
   O1         1.0     0.744210      0.447490      0.683020     Biso  1.000000 O
   O1         1.0     0.744210      0.816980      0.052510     Biso  1.000000 O
   O1         1.0     0.255790      0.183020      0.947490     Biso  1.000000 O
   O1         1.0     0.255790      0.183020      0.052510     Biso  1.000000 O
   O1         1.0     0.744210      0.816980      0.947490     Biso  1.000000 O
   O1         1.0     0.744210      0.183020      0.947490     Biso  1.000000 O
   O1         1.0     0.255790      0.816980      0.052510     Biso  1.000000 O
   O1         1.0     0.255790      0.816980      0.947490     Biso  1.000000 O
   O1         1.0     0.744210      0.183020      0.052510     Biso  1.000000 O
   O1         1.0     0.816980      0.447490      0.755790     Biso  1.000000 O
   O1         1.0     0.183020      0.552510      0.244210     Biso  1.000000 O
   O1         1.0     0.183020      0.447490      0.244210     Biso  1.000000 O
   O1         1.0     0.816980      0.552510      0.755790     Biso  1.000000 O
   O1         1.0     0.183020      0.552510      0.755790     Biso  1.000000 O
   O1         1.0     0.816980      0.447490      0.244210     Biso  1.000000 O
   O1         1.0     0.816980      0.552510      0.244210     Biso  1.000000 O
   O1         1.0     0.183020      0.447490      0.755790     Biso  1.000000 O
   O1         1.0     0.447490      0.744210      0.683020     Biso  1.000000 O
   O1         1.0     0.552510      0.255790      0.316980     Biso  1.000000 O
   O1         1.0     0.447490      0.255790      0.316980     Biso  1.000000 O
   O1         1.0     0.552510      0.744210      0.683020     Biso  1.000000 O
   O1         1.0     0.552510      0.744210      0.316980     Biso  1.000000 O
   O1         1.0     0.447490      0.255790      0.683020     Biso  1.000000 O
   O1         1.0     0.552510      0.255790      0.683020     Biso  1.000000 O
   O1         1.0     0.447490      0.744210      0.316980     Biso  1.000000 O
   C1         1.0     0.321870      0.178130      0.886660     Biso  1.000000 C
   C1         1.0     0.678130      0.821870      0.113340     Biso  1.000000 C
   C1         1.0     0.678130      0.821870      0.886660     Biso  1.000000 C
   C1         1.0     0.321870      0.178130      0.113340     Biso  1.000000 C
   C1         1.0     0.678130      0.178130      0.113340     Biso  1.000000 C
   C1         1.0     0.321870      0.821870      0.886660     Biso  1.000000 C
   C1         1.0     0.321870      0.821870      0.113340     Biso  1.000000 C
   C1         1.0     0.678130      0.178130      0.886660     Biso  1.000000 C
   C1         1.0     0.886660      0.321870      0.178130     Biso  1.000000 C
   C1         1.0     0.113340      0.678130      0.821870     Biso  1.000000 C
   C1         1.0     0.886660      0.678130      0.821870     Biso  1.000000 C
   C1         1.0     0.113340      0.321870      0.178130     Biso  1.000000 C
   C1         1.0     0.113340      0.678130      0.178130     Biso  1.000000 C
   C1         1.0     0.886660      0.321870      0.821870     Biso  1.000000 C
   C1         1.0     0.113340      0.321870      0.821870     Biso  1.000000 C
   C1         1.0     0.886660      0.678130      0.178130     Biso  1.000000 C
   C1         1.0     0.178130      0.886660      0.321870     Biso  1.000000 C
   C1         1.0     0.821870      0.113340      0.678130     Biso  1.000000 C
   C1         1.0     0.821870      0.886660      0.678130     Biso  1.000000 C
   C1         1.0     0.178130      0.113340      0.321870     Biso  1.000000 C
   C1         1.0     0.178130      0.113340      0.678130     Biso  1.000000 C
   C1         1.0     0.821870      0.886660      0.321870     Biso  1.000000 C
   C1         1.0     0.821870      0.113340      0.321870     Biso  1.000000 C
   C1         1.0     0.178130      0.886660      0.678130     Biso  1.000000 C
   C1         1.0     0.178130      0.321870      0.113340     Biso  1.000000 C
   C1         1.0     0.821870      0.678130      0.886660     Biso  1.000000 C
   C1         1.0     0.821870      0.678130      0.113340     Biso  1.000000 C
   C1         1.0     0.178130      0.321870      0.886660     Biso  1.000000 C
   C1         1.0     0.178130      0.678130      0.886660     Biso  1.000000 C
   C1         1.0     0.821870      0.321870      0.113340     Biso  1.000000 C
   C1         1.0     0.821870      0.321870      0.886660     Biso  1.000000 C
   C1         1.0     0.178130      0.678130      0.113340     Biso  1.000000 C
   C1         1.0     0.321870      0.886660      0.821870     Biso  1.000000 C
   C1         1.0     0.678130      0.113340      0.178130     Biso  1.000000 C
   C1         1.0     0.678130      0.886660      0.178130     Biso  1.000000 C
   C1         1.0     0.321870      0.113340      0.821870     Biso  1.000000 C
   C1         1.0     0.678130      0.113340      0.821870     Biso  1.000000 C
   C1         1.0     0.321870      0.886660      0.178130     Biso  1.000000 C
   C1         1.0     0.321870      0.113340      0.178130     Biso  1.000000 C
   C1         1.0     0.678130      0.886660      0.821870     Biso  1.000000 C
   C1         1.0     0.886660      0.178130      0.678130     Biso  1.000000 C
   C1         1.0     0.113340      0.821870      0.321870     Biso  1.000000 C
   C1         1.0     0.886660      0.821870      0.321870     Biso  1.000000 C
   C1         1.0     0.113340      0.178130      0.678130     Biso  1.000000 C
   C1         1.0     0.113340      0.178130      0.321870     Biso  1.000000 C
   C1         1.0     0.886660      0.821870      0.678130     Biso  1.000000 C
   C1         1.0     0.113340      0.821870      0.678130     Biso  1.000000 C
   C1         1.0     0.886660      0.178130      0.321870     Biso  1.000000 C
   C1         1.0     0.321870      0.678130      0.386660     Biso  1.000000 C
   C1         1.0     0.678130      0.321870      0.613340     Biso  1.000000 C
   C1         1.0     0.678130      0.321870      0.386660     Biso  1.000000 C
   C1         1.0     0.321870      0.678130      0.613340     Biso  1.000000 C
   C1         1.0     0.678130      0.678130      0.613340     Biso  1.000000 C
   C1         1.0     0.321870      0.321870      0.386660     Biso  1.000000 C
   C1         1.0     0.321870      0.321870      0.613340     Biso  1.000000 C
   C1         1.0     0.678130      0.678130      0.386660     Biso  1.000000 C
   C1         1.0     0.178130      0.386660      0.821870     Biso  1.000000 C
   C1         1.0     0.821870      0.613340      0.178130     Biso  1.000000 C
   C1         1.0     0.821870      0.386660      0.178130     Biso  1.000000 C
   C1         1.0     0.178130      0.613340      0.821870     Biso  1.000000 C
   C1         1.0     0.178130      0.613340      0.178130     Biso  1.000000 C
   C1         1.0     0.821870      0.386660      0.821870     Biso  1.000000 C
   C1         1.0     0.821870      0.613340      0.821870     Biso  1.000000 C
   C1         1.0     0.178130      0.386660      0.178130     Biso  1.000000 C
   C1         1.0     0.178130      0.821870      0.613340     Biso  1.000000 C
   C1         1.0     0.821870      0.178130      0.386660     Biso  1.000000 C
   C1         1.0     0.821870      0.178130      0.613340     Biso  1.000000 C
   C1         1.0     0.178130      0.821870      0.386660     Biso  1.000000 C
   C1         1.0     0.178130      0.178130      0.386660     Biso  1.000000 C
   C1         1.0     0.821870      0.821870      0.613340     Biso  1.000000 C
   C1         1.0     0.821870      0.821870      0.386660     Biso  1.000000 C
   C1         1.0     0.178130      0.178130      0.613340     Biso  1.000000 C
   C1         1.0     0.321870      0.386660      0.321870     Biso  1.000000 C
   C1         1.0     0.678130      0.613340      0.678130     Biso  1.000000 C
   C1         1.0     0.678130      0.386660      0.678130     Biso  1.000000 C
   C1         1.0     0.321870      0.613340      0.321870     Biso  1.000000 C
   C1         1.0     0.678130      0.613340      0.321870     Biso  1.000000 C
   C1         1.0     0.321870      0.386660      0.678130     Biso  1.000000 C
   C1         1.0     0.321870      0.613340      0.678130     Biso  1.000000 C
   C1         1.0     0.678130      0.386660      0.321870     Biso  1.000000 C
   C1         1.0     0.386660      0.321870      0.678130     Biso  1.000000 C
   C1         1.0     0.613340      0.678130      0.321870     Biso  1.000000 C
   C1         1.0     0.386660      0.678130      0.321870     Biso  1.000000 C
   C1         1.0     0.613340      0.321870      0.678130     Biso  1.000000 C
   C1         1.0     0.613340      0.678130      0.678130     Biso  1.000000 C
   C1         1.0     0.386660      0.321870      0.321870     Biso  1.000000 C
   C1         1.0     0.613340      0.321870      0.321870     Biso  1.000000 C
   C1         1.0     0.386660      0.678130      0.678130     Biso  1.000000 C
   C1         1.0     0.386660      0.178130      0.178130     Biso  1.000000 C
   C1         1.0     0.613340      0.821870      0.821870     Biso  1.000000 C
   C1         1.0     0.386660      0.821870      0.821870     Biso  1.000000 C
   C1         1.0     0.613340      0.178130      0.178130     Biso  1.000000 C
   C1         1.0     0.613340      0.178130      0.821870     Biso  1.000000 C
   C1         1.0     0.386660      0.821870      0.178130     Biso  1.000000 C
   C1         1.0     0.613340      0.821870      0.178130     Biso  1.000000 C
   C1         1.0     0.386660      0.178130      0.821870     Biso  1.000000 C
   C2         1.0     0.296440      0.203560      0.930610     Biso  1.000000 C
   C2         1.0     0.703560      0.796440      0.069390     Biso  1.000000 C
   C2         1.0     0.703560      0.796440      0.930610     Biso  1.000000 C
   C2         1.0     0.296440      0.203560      0.069390     Biso  1.000000 C
   C2         1.0     0.703560      0.203560      0.069390     Biso  1.000000 C
   C2         1.0     0.296440      0.796440      0.930610     Biso  1.000000 C
   C2         1.0     0.296440      0.796440      0.069390     Biso  1.000000 C
   C2         1.0     0.703560      0.203560      0.930610     Biso  1.000000 C
   C2         1.0     0.930610      0.296440      0.203560     Biso  1.000000 C
   C2         1.0     0.069390      0.703560      0.796440     Biso  1.000000 C
   C2         1.0     0.930610      0.703560      0.796440     Biso  1.000000 C
   C2         1.0     0.069390      0.296440      0.203560     Biso  1.000000 C
   C2         1.0     0.069390      0.703560      0.203560     Biso  1.000000 C
   C2         1.0     0.930610      0.296440      0.796440     Biso  1.000000 C
   C2         1.0     0.069390      0.296440      0.796440     Biso  1.000000 C
   C2         1.0     0.930610      0.703560      0.203560     Biso  1.000000 C
   C2         1.0     0.203560      0.930610      0.296440     Biso  1.000000 C
   C2         1.0     0.796440      0.069390      0.703560     Biso  1.000000 C
   C2         1.0     0.796440      0.930610      0.703560     Biso  1.000000 C
   C2         1.0     0.203560      0.069390      0.296440     Biso  1.000000 C
   C2         1.0     0.203560      0.069390      0.703560     Biso  1.000000 C
   C2         1.0     0.796440      0.930610      0.296440     Biso  1.000000 C
   C2         1.0     0.796440      0.069390      0.296440     Biso  1.000000 C
   C2         1.0     0.203560      0.930610      0.703560     Biso  1.000000 C
   C2         1.0     0.203560      0.296440      0.069390     Biso  1.000000 C
   C2         1.0     0.796440      0.703560      0.930610     Biso  1.000000 C
   C2         1.0     0.796440      0.703560      0.069390     Biso  1.000000 C
   C2         1.0     0.203560      0.296440      0.930610     Biso  1.000000 C
   C2         1.0     0.203560      0.703560      0.930610     Biso  1.000000 C
   C2         1.0     0.796440      0.296440      0.069390     Biso  1.000000 C
   C2         1.0     0.796440      0.296440      0.930610     Biso  1.000000 C
   C2         1.0     0.203560      0.703560      0.069390     Biso  1.000000 C
   C2         1.0     0.296440      0.930610      0.796440     Biso  1.000000 C
   C2         1.0     0.703560      0.069390      0.203560     Biso  1.000000 C
   C2         1.0     0.703560      0.930610      0.203560     Biso  1.000000 C
   C2         1.0     0.296440      0.069390      0.796440     Biso  1.000000 C
   C2         1.0     0.703560      0.069390      0.796440     Biso  1.000000 C
   C2         1.0     0.296440      0.930610      0.203560     Biso  1.000000 C
   C2         1.0     0.296440      0.069390      0.203560     Biso  1.000000 C
   C2         1.0     0.703560      0.930610      0.796440     Biso  1.000000 C
   C2         1.0     0.930610      0.203560      0.703560     Biso  1.000000 C
   C2         1.0     0.069390      0.796440      0.296440     Biso  1.000000 C
   C2         1.0     0.930610      0.796440      0.296440     Biso  1.000000 C
   C2         1.0     0.069390      0.203560      0.703560     Biso  1.000000 C
   C2         1.0     0.069390      0.203560      0.296440     Biso  1.000000 C
   C2         1.0     0.930610      0.796440      0.703560     Biso  1.000000 C
   C2         1.0     0.069390      0.796440      0.703560     Biso  1.000000 C
   C2         1.0     0.930610      0.203560      0.296440     Biso  1.000000 C
   C2         1.0     0.296440      0.703560      0.430610     Biso  1.000000 C
   C2         1.0     0.703560      0.296440      0.569390     Biso  1.000000 C
   C2         1.0     0.703560      0.296440      0.430610     Biso  1.000000 C
   C2         1.0     0.296440      0.703560      0.569390     Biso  1.000000 C
   C2         1.0     0.703560      0.703560      0.569390     Biso  1.000000 C
   C2         1.0     0.296440      0.296440      0.430610     Biso  1.000000 C
   C2         1.0     0.296440      0.296440      0.569390     Biso  1.000000 C
   C2         1.0     0.703560      0.703560      0.430610     Biso  1.000000 C
   C2         1.0     0.203560      0.430610      0.796440     Biso  1.000000 C
   C2         1.0     0.796440      0.569390      0.203560     Biso  1.000000 C
   C2         1.0     0.796440      0.430610      0.203560     Biso  1.000000 C
   C2         1.0     0.203560      0.569390      0.796440     Biso  1.000000 C
   C2         1.0     0.203560      0.569390      0.203560     Biso  1.000000 C
   C2         1.0     0.796440      0.430610      0.796440     Biso  1.000000 C
   C2         1.0     0.796440      0.569390      0.796440     Biso  1.000000 C
   C2         1.0     0.203560      0.430610      0.203560     Biso  1.000000 C
   C2         1.0     0.203560      0.796440      0.569390     Biso  1.000000 C
   C2         1.0     0.796440      0.203560      0.430610     Biso  1.000000 C
   C2         1.0     0.796440      0.203560      0.569390     Biso  1.000000 C
   C2         1.0     0.203560      0.796440      0.430610     Biso  1.000000 C
   C2         1.0     0.203560      0.203560      0.430610     Biso  1.000000 C
   C2         1.0     0.796440      0.796440      0.569390     Biso  1.000000 C
   C2         1.0     0.796440      0.796440      0.430610     Biso  1.000000 C
   C2         1.0     0.203560      0.203560      0.569390     Biso  1.000000 C
   C2         1.0     0.296440      0.430610      0.296440     Biso  1.000000 C
   C2         1.0     0.703560      0.569390      0.703560     Biso  1.000000 C
   C2         1.0     0.703560      0.430610      0.703560     Biso  1.000000 C
   C2         1.0     0.296440      0.569390      0.296440     Biso  1.000000 C
   C2         1.0     0.703560      0.569390      0.296440     Biso  1.000000 C
   C2         1.0     0.296440      0.430610      0.703560     Biso  1.000000 C
   C2         1.0     0.296440      0.569390      0.703560     Biso  1.000000 C
   C2         1.0     0.703560      0.430610      0.296440     Biso  1.000000 C
   C2         1.0     0.430610      0.296440      0.703560     Biso  1.000000 C
   C2         1.0     0.569390      0.703560      0.296440     Biso  1.000000 C
   C2         1.0     0.430610      0.703560      0.296440     Biso  1.000000 C
   C2         1.0     0.569390      0.296440      0.703560     Biso  1.000000 C
   C2         1.0     0.569390      0.703560      0.703560     Biso  1.000000 C
   C2         1.0     0.430610      0.296440      0.296440     Biso  1.000000 C
   C2         1.0     0.569390      0.296440      0.296440     Biso  1.000000 C
   C2         1.0     0.430610      0.703560      0.703560     Biso  1.000000 C
   C2         1.0     0.430610      0.203560      0.203560     Biso  1.000000 C
   C2         1.0     0.569390      0.796440      0.796440     Biso  1.000000 C
   C2         1.0     0.430610      0.796440      0.796440     Biso  1.000000 C
   C2         1.0     0.569390      0.203560      0.203560     Biso  1.000000 C
   C2         1.0     0.569390      0.203560      0.796440     Biso  1.000000 C
   C2         1.0     0.430610      0.796440      0.203560     Biso  1.000000 C
   C2         1.0     0.569390      0.796440      0.203560     Biso  1.000000 C
   C2         1.0     0.430610      0.203560      0.796440     Biso  1.000000 C
   C3         1.0     0.364970      0.201290      0.864970     Biso  1.000000 C
   C3         1.0     0.635030      0.798710      0.135030     Biso  1.000000 C
   C3         1.0     0.635030      0.798710      0.864970     Biso  1.000000 C
   C3         1.0     0.364970      0.201290      0.135030     Biso  1.000000 C
   C3         1.0     0.635030      0.201290      0.135030     Biso  1.000000 C
   C3         1.0     0.364970      0.798710      0.864970     Biso  1.000000 C
   C3         1.0     0.364970      0.798710      0.135030     Biso  1.000000 C
   C3         1.0     0.635030      0.201290      0.864970     Biso  1.000000 C
   C3         1.0     0.864970      0.364970      0.201290     Biso  1.000000 C
   C3         1.0     0.135030      0.635030      0.798710     Biso  1.000000 C
   C3         1.0     0.864970      0.635030      0.798710     Biso  1.000000 C
   C3         1.0     0.135030      0.364970      0.201290     Biso  1.000000 C
   C3         1.0     0.135030      0.635030      0.201290     Biso  1.000000 C
   C3         1.0     0.864970      0.364970      0.798710     Biso  1.000000 C
   C3         1.0     0.135030      0.364970      0.798710     Biso  1.000000 C
   C3         1.0     0.864970      0.635030      0.201290     Biso  1.000000 C
   C3         1.0     0.201290      0.864970      0.364970     Biso  1.000000 C
   C3         1.0     0.798710      0.135030      0.635030     Biso  1.000000 C
   C3         1.0     0.798710      0.864970      0.635030     Biso  1.000000 C
   C3         1.0     0.201290      0.135030      0.364970     Biso  1.000000 C
   C3         1.0     0.201290      0.135030      0.635030     Biso  1.000000 C
   C3         1.0     0.798710      0.864970      0.364970     Biso  1.000000 C
   C3         1.0     0.798710      0.135030      0.364970     Biso  1.000000 C
   C3         1.0     0.201290      0.864970      0.635030     Biso  1.000000 C
   C3         1.0     0.201290      0.364970      0.135030     Biso  1.000000 C
   C3         1.0     0.798710      0.635030      0.864970     Biso  1.000000 C
   C3         1.0     0.798710      0.635030      0.135030     Biso  1.000000 C
   C3         1.0     0.201290      0.364970      0.864970     Biso  1.000000 C
   C3         1.0     0.201290      0.635030      0.864970     Biso  1.000000 C
   C3         1.0     0.798710      0.364970      0.135030     Biso  1.000000 C
   C3         1.0     0.798710      0.364970      0.864970     Biso  1.000000 C
   C3         1.0     0.201290      0.635030      0.135030     Biso  1.000000 C
   C3         1.0     0.364970      0.864970      0.798710     Biso  1.000000 C
   C3         1.0     0.635030      0.135030      0.201290     Biso  1.000000 C
   C3         1.0     0.635030      0.864970      0.201290     Biso  1.000000 C
   C3         1.0     0.364970      0.135030      0.798710     Biso  1.000000 C
   C3         1.0     0.635030      0.135030      0.798710     Biso  1.000000 C
   C3         1.0     0.364970      0.864970      0.201290     Biso  1.000000 C
   C3         1.0     0.364970      0.135030      0.201290     Biso  1.000000 C
   C3         1.0     0.635030      0.864970      0.798710     Biso  1.000000 C
   C3         1.0     0.864970      0.201290      0.635030     Biso  1.000000 C
   C3         1.0     0.135030      0.798710      0.364970     Biso  1.000000 C
   C3         1.0     0.864970      0.798710      0.364970     Biso  1.000000 C
   C3         1.0     0.135030      0.201290      0.635030     Biso  1.000000 C
   C3         1.0     0.135030      0.201290      0.364970     Biso  1.000000 C
   C3         1.0     0.864970      0.798710      0.635030     Biso  1.000000 C
   C3         1.0     0.135030      0.798710      0.635030     Biso  1.000000 C
   C3         1.0     0.864970      0.201290      0.364970     Biso  1.000000 C
   C3         1.0     0.364970      0.701290      0.364970     Biso  1.000000 C
   C3         1.0     0.635030      0.298710      0.635030     Biso  1.000000 C
   C3         1.0     0.635030      0.298710      0.364970     Biso  1.000000 C
   C3         1.0     0.364970      0.701290      0.635030     Biso  1.000000 C
   C3         1.0     0.635030      0.701290      0.635030     Biso  1.000000 C
   C3         1.0     0.364970      0.298710      0.364970     Biso  1.000000 C
   C3         1.0     0.364970      0.298710      0.635030     Biso  1.000000 C
   C3         1.0     0.635030      0.701290      0.364970     Biso  1.000000 C
   C3         1.0     0.864970      0.864970      0.701290     Biso  1.000000 C
   C3         1.0     0.135030      0.135030      0.298710     Biso  1.000000 C
   C3         1.0     0.864970      0.135030      0.298710     Biso  1.000000 C
   C3         1.0     0.135030      0.864970      0.701290     Biso  1.000000 C
   C3         1.0     0.135030      0.135030      0.701290     Biso  1.000000 C
   C3         1.0     0.864970      0.864970      0.298710     Biso  1.000000 C
   C3         1.0     0.135030      0.864970      0.298710     Biso  1.000000 C
   C3         1.0     0.864970      0.135030      0.701290     Biso  1.000000 C
   C3         1.0     0.364970      0.364970      0.298710     Biso  1.000000 C
   C3         1.0     0.635030      0.635030      0.701290     Biso  1.000000 C
   C3         1.0     0.635030      0.364970      0.701290     Biso  1.000000 C
   C3         1.0     0.364970      0.635030      0.298710     Biso  1.000000 C
   C3         1.0     0.635030      0.635030      0.298710     Biso  1.000000 C
   C3         1.0     0.364970      0.364970      0.701290     Biso  1.000000 C
   C3         1.0     0.364970      0.635030      0.701290     Biso  1.000000 C
   C3         1.0     0.635030      0.364970      0.298710     Biso  1.000000 C
   C3         1.0     0.864970      0.701290      0.135030     Biso  1.000000 C
   C3         1.0     0.135030      0.298710      0.864970     Biso  1.000000 C
   C3         1.0     0.864970      0.298710      0.864970     Biso  1.000000 C
   C3         1.0     0.135030      0.701290      0.135030     Biso  1.000000 C
   C3         1.0     0.135030      0.701290      0.864970     Biso  1.000000 C
   C3         1.0     0.864970      0.298710      0.135030     Biso  1.000000 C
   C3         1.0     0.135030      0.298710      0.135030     Biso  1.000000 C
   C3         1.0     0.864970      0.701290      0.864970     Biso  1.000000 C
   C3         1.0     0.701290      0.864970      0.864970     Biso  1.000000 C
   C3         1.0     0.298710      0.135030      0.135030     Biso  1.000000 C
   C3         1.0     0.298710      0.864970      0.135030     Biso  1.000000 C
   C3         1.0     0.701290      0.135030      0.864970     Biso  1.000000 C
   C3         1.0     0.701290      0.135030      0.135030     Biso  1.000000 C
   C3         1.0     0.298710      0.864970      0.864970     Biso  1.000000 C
   C3         1.0     0.298710      0.135030      0.864970     Biso  1.000000 C
   C3         1.0     0.701290      0.864970      0.135030     Biso  1.000000 C
   C3         1.0     0.701290      0.364970      0.635030     Biso  1.000000 C
   C3         1.0     0.298710      0.635030      0.364970     Biso  1.000000 C
   C3         1.0     0.298710      0.635030      0.635030     Biso  1.000000 C
   C3         1.0     0.701290      0.364970      0.364970     Biso  1.000000 C
   C3         1.0     0.701290      0.635030      0.364970     Biso  1.000000 C
   C3         1.0     0.298710      0.364970      0.635030     Biso  1.000000 C
   C3         1.0     0.298710      0.364970      0.364970     Biso  1.000000 C
   C3         1.0     0.701290      0.635030      0.635030     Biso  1.000000 C
   H1         1.0     0.380188      0.234070      0.880182     Biso  1.000000 H
   H1         1.0     0.619812      0.765930      0.119818     Biso  1.000000 H
   H1         1.0     0.619812      0.765930      0.880182     Biso  1.000000 H
   H1         1.0     0.380188      0.234070      0.119818     Biso  1.000000 H
   H1         1.0     0.619812      0.234070      0.119818     Biso  1.000000 H
   H1         1.0     0.380188      0.765930      0.880182     Biso  1.000000 H
   H1         1.0     0.380188      0.765930      0.119818     Biso  1.000000 H
   H1         1.0     0.619812      0.234070      0.880182     Biso  1.000000 H
   H1         1.0     0.880182      0.380188      0.234070     Biso  1.000000 H
   H1         1.0     0.119818      0.619812      0.765930     Biso  1.000000 H
   H1         1.0     0.880182      0.619812      0.765930     Biso  1.000000 H
   H1         1.0     0.119818      0.380188      0.234070     Biso  1.000000 H
   H1         1.0     0.119818      0.619812      0.234070     Biso  1.000000 H
   H1         1.0     0.880182      0.380188      0.765930     Biso  1.000000 H
   H1         1.0     0.119818      0.380188      0.765930     Biso  1.000000 H
   H1         1.0     0.880182      0.619812      0.234070     Biso  1.000000 H
   H1         1.0     0.234070      0.880182      0.380188     Biso  1.000000 H
   H1         1.0     0.765930      0.119818      0.619812     Biso  1.000000 H
   H1         1.0     0.765930      0.880182      0.619812     Biso  1.000000 H
   H1         1.0     0.234070      0.119818      0.380188     Biso  1.000000 H
   H1         1.0     0.234070      0.119818      0.619812     Biso  1.000000 H
   H1         1.0     0.765930      0.880182      0.380188     Biso  1.000000 H
   H1         1.0     0.765930      0.119818      0.380188     Biso  1.000000 H
   H1         1.0     0.234070      0.880182      0.619812     Biso  1.000000 H
   H1         1.0     0.234070      0.380188      0.119818     Biso  1.000000 H
   H1         1.0     0.765930      0.619812      0.880182     Biso  1.000000 H
   H1         1.0     0.765930      0.619812      0.119818     Biso  1.000000 H
   H1         1.0     0.234070      0.380188      0.880182     Biso  1.000000 H
   H1         1.0     0.234070      0.619812      0.880182     Biso  1.000000 H
   H1         1.0     0.765930      0.380188      0.119818     Biso  1.000000 H
   H1         1.0     0.765930      0.380188      0.880182     Biso  1.000000 H
   H1         1.0     0.234070      0.619812      0.119818     Biso  1.000000 H
   H1         1.0     0.380188      0.880182      0.765930     Biso  1.000000 H
   H1         1.0     0.619812      0.119818      0.234070     Biso  1.000000 H
   H1         1.0     0.619812      0.880182      0.234070     Biso  1.000000 H
   H1         1.0     0.380188      0.119818      0.765930     Biso  1.000000 H
   H1         1.0     0.619812      0.119818      0.765930     Biso  1.000000 H
   H1         1.0     0.380188      0.880182      0.234070     Biso  1.000000 H
   H1         1.0     0.380188      0.119818      0.234070     Biso  1.000000 H
   H1         1.0     0.619812      0.880182      0.765930     Biso  1.000000 H
   H1         1.0     0.880182      0.234070      0.619812     Biso  1.000000 H
   H1         1.0     0.119818      0.765930      0.380188     Biso  1.000000 H
   H1         1.0     0.880182      0.765930      0.380188     Biso  1.000000 H
   H1         1.0     0.119818      0.234070      0.619812     Biso  1.000000 H
   H1         1.0     0.119818      0.234070      0.380188     Biso  1.000000 H
   H1         1.0     0.880182      0.765930      0.619812     Biso  1.000000 H
   H1         1.0     0.119818      0.765930      0.619812     Biso  1.000000 H
   H1         1.0     0.880182      0.234070      0.380188     Biso  1.000000 H
   H1         1.0     0.380188      0.734070      0.380182     Biso  1.000000 H
   H1         1.0     0.619812      0.265930      0.619818     Biso  1.000000 H
   H1         1.0     0.619812      0.265930      0.380182     Biso  1.000000 H
   H1         1.0     0.380188      0.734070      0.619818     Biso  1.000000 H
   H1         1.0     0.619812      0.734070      0.619818     Biso  1.000000 H
   H1         1.0     0.380188      0.265930      0.380182     Biso  1.000000 H
   H1         1.0     0.380188      0.265930      0.619818     Biso  1.000000 H
   H1         1.0     0.619812      0.734070      0.380182     Biso  1.000000 H
   H1         1.0     0.880182      0.880188      0.734070     Biso  1.000000 H
   H1         1.0     0.119818      0.119812      0.265930     Biso  1.000000 H
   H1         1.0     0.880182      0.119812      0.265930     Biso  1.000000 H
   H1         1.0     0.119818      0.880188      0.734070     Biso  1.000000 H
   H1         1.0     0.119818      0.119812      0.734070     Biso  1.000000 H
   H1         1.0     0.880182      0.880188      0.265930     Biso  1.000000 H
   H1         1.0     0.119818      0.880188      0.265930     Biso  1.000000 H
   H1         1.0     0.880182      0.119812      0.734070     Biso  1.000000 H
   H1         1.0     0.380188      0.380182      0.265930     Biso  1.000000 H
   H1         1.0     0.619812      0.619818      0.734070     Biso  1.000000 H
   H1         1.0     0.619812      0.380182      0.734070     Biso  1.000000 H
   H1         1.0     0.380188      0.619818      0.265930     Biso  1.000000 H
   H1         1.0     0.619812      0.619818      0.265930     Biso  1.000000 H
   H1         1.0     0.380188      0.380182      0.734070     Biso  1.000000 H
   H1         1.0     0.380188      0.619818      0.734070     Biso  1.000000 H
   H1         1.0     0.619812      0.380182      0.265930     Biso  1.000000 H
   H1         1.0     0.880182      0.734070      0.119812     Biso  1.000000 H
   H1         1.0     0.119818      0.265930      0.880188     Biso  1.000000 H
   H1         1.0     0.880182      0.265930      0.880188     Biso  1.000000 H
   H1         1.0     0.119818      0.734070      0.119812     Biso  1.000000 H
   H1         1.0     0.119818      0.734070      0.880188     Biso  1.000000 H
   H1         1.0     0.880182      0.265930      0.119812     Biso  1.000000 H
   H1         1.0     0.119818      0.265930      0.119812     Biso  1.000000 H
   H1         1.0     0.880182      0.734070      0.880188     Biso  1.000000 H
   H1         1.0     0.734070      0.880182      0.880188     Biso  1.000000 H
   H1         1.0     0.265930      0.119818      0.119812     Biso  1.000000 H
   H1         1.0     0.265930      0.880182      0.119812     Biso  1.000000 H
   H1         1.0     0.734070      0.119818      0.880188     Biso  1.000000 H
   H1         1.0     0.734070      0.119818      0.119812     Biso  1.000000 H
   H1         1.0     0.265930      0.880182      0.880188     Biso  1.000000 H
   H1         1.0     0.265930      0.119818      0.880188     Biso  1.000000 H
   H1         1.0     0.734070      0.880182      0.119812     Biso  1.000000 H
   H1         1.0     0.734070      0.380188      0.619818     Biso  1.000000 H
   H1         1.0     0.265930      0.619812      0.380182     Biso  1.000000 H
   H1         1.0     0.265930      0.619812      0.619818     Biso  1.000000 H
   H1         1.0     0.734070      0.380188      0.380182     Biso  1.000000 H
   H1         1.0     0.734070      0.619812      0.380182     Biso  1.000000 H
   H1         1.0     0.265930      0.380188      0.619818     Biso  1.000000 H
   H1         1.0     0.265930      0.380188      0.380182     Biso  1.000000 H
   H1         1.0     0.734070      0.619812      0.619818     Biso  1.000000 H
