#======================================================================

# CRYSTAL DATA

#----------------------------------------------------------------------

data_VESTA_phase_1


_chemical_name_common                  ''
_cell_length_a                         34.28070
_cell_length_b                         34.28070
_cell_length_c                         34.28070
_cell_angle_alpha                      90
_cell_angle_beta                       90
_cell_angle_gamma                      90
_space_group_name_H-M_alt              'P 1'
_space_group_IT_number                 1

loop_
_space_group_symop_operation_xyz
   'x, y, z'

loop_
   _atom_site_label
   _atom_site_occupancy
   _atom_site_fract_x
   _atom_site_fract_y
   _atom_site_fract_z
   _atom_site_adp_type
   _atom_site_B_iso_or_equiv
   _atom_site_type_symbol
   Zn1        1.0     0.282770      0.217230      0.217230     Biso  1.000000 Zn
   Zn1        1.0     0.717230      0.782770      0.782770     Biso  1.000000 Zn
   Zn1        1.0     0.717230      0.782770      0.217230     Biso  1.000000 Zn
   Zn1        1.0     0.282770      0.217230      0.782770     Biso  1.000000 Zn
   Zn1        1.0     0.717230      0.217230      0.782770     Biso  1.000000 Zn
   Zn1        1.0     0.282770      0.782770      0.217230     Biso  1.000000 Zn
   Zn1        1.0     0.282770      0.782770      0.782770     Biso  1.000000 Zn
   Zn1        1.0     0.717230      0.217230      0.217230     Biso  1.000000 Zn
   Zn1        1.0     0.217230      0.282770      0.217230     Biso  1.000000 Zn
   Zn1        1.0     0.782770      0.717230      0.782770     Biso  1.000000 Zn
   Zn1        1.0     0.217230      0.717230      0.782770     Biso  1.000000 Zn
   Zn1        1.0     0.782770      0.282770      0.217230     Biso  1.000000 Zn
   Zn1        1.0     0.782770      0.717230      0.217230     Biso  1.000000 Zn
   Zn1        1.0     0.217230      0.282770      0.782770     Biso  1.000000 Zn
   Zn1        1.0     0.782770      0.282770      0.782770     Biso  1.000000 Zn
   Zn1        1.0     0.217230      0.717230      0.217230     Biso  1.000000 Zn
   Zn1        1.0     0.217230      0.217230      0.282770     Biso  1.000000 Zn
   Zn1        1.0     0.782770      0.782770      0.717230     Biso  1.000000 Zn
   Zn1        1.0     0.782770      0.217230      0.717230     Biso  1.000000 Zn
   Zn1        1.0     0.217230      0.782770      0.282770     Biso  1.000000 Zn
   Zn1        1.0     0.217230      0.782770      0.717230     Biso  1.000000 Zn
   Zn1        1.0     0.782770      0.217230      0.282770     Biso  1.000000 Zn
   Zn1        1.0     0.782770      0.782770      0.282770     Biso  1.000000 Zn
   Zn1        1.0     0.217230      0.217230      0.717230     Biso  1.000000 Zn
   Zn1        1.0     0.282770      0.717230      0.717230     Biso  1.000000 Zn
   Zn1        1.0     0.717230      0.282770      0.282770     Biso  1.000000 Zn
   Zn1        1.0     0.717230      0.282770      0.717230     Biso  1.000000 Zn
   Zn1        1.0     0.282770      0.717230      0.282770     Biso  1.000000 Zn
   Zn1        1.0     0.717230      0.717230      0.282770     Biso  1.000000 Zn
   Zn1        1.0     0.282770      0.282770      0.717230     Biso  1.000000 Zn
   Zn1        1.0     0.282770      0.282770      0.282770     Biso  1.000000 Zn
   Zn1        1.0     0.717230      0.717230      0.717230     Biso  1.000000 Zn
   O1         1.0     0.250000      0.250000      0.250000     Biso  1.000000 O
   O1         1.0     0.750000      0.750000      0.750000     Biso  1.000000 O
   O1         1.0     0.750000      0.750000      0.250000     Biso  1.000000 O
   O1         1.0     0.250000      0.250000      0.750000     Biso  1.000000 O
   O1         1.0     0.750000      0.250000      0.750000     Biso  1.000000 O
   O1         1.0     0.250000      0.750000      0.250000     Biso  1.000000 O
   O1         1.0     0.250000      0.750000      0.750000     Biso  1.000000 O
   O1         1.0     0.750000      0.250000      0.250000     Biso  1.000000 O
   O2         1.0     0.273520      0.226480      0.161790     Biso  1.000000 O
   O2         1.0     0.726480      0.773520      0.838210     Biso  1.000000 O
   O2         1.0     0.726480      0.773520      0.161790     Biso  1.000000 O
   O2         1.0     0.273520      0.226480      0.838210     Biso  1.000000 O
   O2         1.0     0.726480      0.226480      0.838210     Biso  1.000000 O
   O2         1.0     0.273520      0.773520      0.161790     Biso  1.000000 O
   O2         1.0     0.273520      0.773520      0.838210     Biso  1.000000 O
   O2         1.0     0.726480      0.226480      0.161790     Biso  1.000000 O
   O2         1.0     0.161790      0.273520      0.226480     Biso  1.000000 O
   O2         1.0     0.838210      0.726480      0.773520     Biso  1.000000 O
   O2         1.0     0.161790      0.726480      0.773520     Biso  1.000000 O
   O2         1.0     0.838210      0.273520      0.226480     Biso  1.000000 O
   O2         1.0     0.838210      0.726480      0.226480     Biso  1.000000 O
   O2         1.0     0.161790      0.273520      0.773520     Biso  1.000000 O
   O2         1.0     0.838210      0.273520      0.773520     Biso  1.000000 O
   O2         1.0     0.161790      0.726480      0.226480     Biso  1.000000 O
   O2         1.0     0.226480      0.161790      0.273520     Biso  1.000000 O
   O2         1.0     0.773520      0.838210      0.726480     Biso  1.000000 O
   O2         1.0     0.773520      0.161790      0.726480     Biso  1.000000 O
   O2         1.0     0.226480      0.838210      0.273520     Biso  1.000000 O
   O2         1.0     0.226480      0.838210      0.726480     Biso  1.000000 O
   O2         1.0     0.773520      0.161790      0.273520     Biso  1.000000 O
   O2         1.0     0.773520      0.838210      0.273520     Biso  1.000000 O
   O2         1.0     0.226480      0.161790      0.726480     Biso  1.000000 O
   O2         1.0     0.226480      0.273520      0.838210     Biso  1.000000 O
   O2         1.0     0.773520      0.726480      0.161790     Biso  1.000000 O
   O2         1.0     0.773520      0.726480      0.838210     Biso  1.000000 O
   O2         1.0     0.226480      0.273520      0.161790     Biso  1.000000 O
   O2         1.0     0.226480      0.726480      0.161790     Biso  1.000000 O
   O2         1.0     0.773520      0.273520      0.838210     Biso  1.000000 O
   O2         1.0     0.773520      0.273520      0.161790     Biso  1.000000 O
   O2         1.0     0.226480      0.726480      0.838210     Biso  1.000000 O
   O2         1.0     0.273520      0.161790      0.773520     Biso  1.000000 O
   O2         1.0     0.726480      0.838210      0.226480     Biso  1.000000 O
   O2         1.0     0.726480      0.161790      0.226480     Biso  1.000000 O
   O2         1.0     0.273520      0.838210      0.773520     Biso  1.000000 O
   O2         1.0     0.726480      0.838210      0.773520     Biso  1.000000 O
   O2         1.0     0.273520      0.161790      0.226480     Biso  1.000000 O
   O2         1.0     0.273520      0.838210      0.226480     Biso  1.000000 O
   O2         1.0     0.726480      0.161790      0.773520     Biso  1.000000 O
   O2         1.0     0.161790      0.226480      0.726480     Biso  1.000000 O
   O2         1.0     0.838210      0.773520      0.273520     Biso  1.000000 O
   O2         1.0     0.161790      0.773520      0.273520     Biso  1.000000 O
   O2         1.0     0.838210      0.226480      0.726480     Biso  1.000000 O
   O2         1.0     0.838210      0.226480      0.273520     Biso  1.000000 O
   O2         1.0     0.161790      0.773520      0.726480     Biso  1.000000 O
   O2         1.0     0.838210      0.773520      0.726480     Biso  1.000000 O
   O2         1.0     0.161790      0.226480      0.273520     Biso  1.000000 O
   O2         1.0     0.273520      0.726480      0.661790     Biso  1.000000 O
   O2         1.0     0.726480      0.273520      0.338210     Biso  1.000000 O
   O2         1.0     0.726480      0.273520      0.661790     Biso  1.000000 O
   O2         1.0     0.273520      0.726480      0.338210     Biso  1.000000 O
   O2         1.0     0.726480      0.726480      0.338210     Biso  1.000000 O
   O2         1.0     0.273520      0.273520      0.661790     Biso  1.000000 O
   O2         1.0     0.273520      0.273520      0.338210     Biso  1.000000 O
   O2         1.0     0.726480      0.726480      0.661790     Biso  1.000000 O
   O2         1.0     0.226480      0.661790      0.773520     Biso  1.000000 O
   O2         1.0     0.773520      0.338210      0.226480     Biso  1.000000 O
   O2         1.0     0.773520      0.661790      0.226480     Biso  1.000000 O
   O2         1.0     0.226480      0.338210      0.773520     Biso  1.000000 O
   O2         1.0     0.226480      0.338210      0.226480     Biso  1.000000 O
   O2         1.0     0.773520      0.661790      0.773520     Biso  1.000000 O
   O2         1.0     0.773520      0.338210      0.773520     Biso  1.000000 O
   O2         1.0     0.226480      0.661790      0.226480     Biso  1.000000 O
   O2         1.0     0.226480      0.773520      0.338210     Biso  1.000000 O
   O2         1.0     0.773520      0.226480      0.661790     Biso  1.000000 O
   O2         1.0     0.773520      0.226480      0.338210     Biso  1.000000 O
   O2         1.0     0.226480      0.773520      0.661790     Biso  1.000000 O
   O2         1.0     0.226480      0.226480      0.661790     Biso  1.000000 O
   O2         1.0     0.773520      0.773520      0.338210     Biso  1.000000 O
   O2         1.0     0.773520      0.773520      0.661790     Biso  1.000000 O
   O2         1.0     0.226480      0.226480      0.338210     Biso  1.000000 O
   O2         1.0     0.273520      0.661790      0.273520     Biso  1.000000 O
   O2         1.0     0.726480      0.338210      0.726480     Biso  1.000000 O
   O2         1.0     0.726480      0.661790      0.726480     Biso  1.000000 O
   O2         1.0     0.273520      0.338210      0.273520     Biso  1.000000 O
   O2         1.0     0.726480      0.338210      0.273520     Biso  1.000000 O
   O2         1.0     0.273520      0.661790      0.726480     Biso  1.000000 O
   O2         1.0     0.273520      0.338210      0.726480     Biso  1.000000 O
   O2         1.0     0.726480      0.661790      0.273520     Biso  1.000000 O
   O2         1.0     0.661790      0.273520      0.726480     Biso  1.000000 O
   O2         1.0     0.338210      0.726480      0.273520     Biso  1.000000 O
   O2         1.0     0.661790      0.726480      0.273520     Biso  1.000000 O
   O2         1.0     0.338210      0.273520      0.726480     Biso  1.000000 O
   O2         1.0     0.338210      0.726480      0.726480     Biso  1.000000 O
   O2         1.0     0.661790      0.273520      0.273520     Biso  1.000000 O
   O2         1.0     0.338210      0.273520      0.273520     Biso  1.000000 O
   O2         1.0     0.661790      0.726480      0.726480     Biso  1.000000 O
   O2         1.0     0.661790      0.226480      0.226480     Biso  1.000000 O
   O2         1.0     0.338210      0.773520      0.773520     Biso  1.000000 O
   O2         1.0     0.661790      0.773520      0.773520     Biso  1.000000 O
   O2         1.0     0.338210      0.226480      0.226480     Biso  1.000000 O
   O2         1.0     0.338210      0.226480      0.773520     Biso  1.000000 O
   O2         1.0     0.661790      0.773520      0.226480     Biso  1.000000 O
   O2         1.0     0.338210      0.773520      0.226480     Biso  1.000000 O
   O2         1.0     0.661790      0.226480      0.773520     Biso  1.000000 O
   C1         1.0     0.250000      0.250000      0.144830     Biso  1.000000 C
   C1         1.0     0.750000      0.750000      0.855170     Biso  1.000000 C
   C1         1.0     0.750000      0.750000      0.144830     Biso  1.000000 C
   C1         1.0     0.250000      0.250000      0.855170     Biso  1.000000 C
   C1         1.0     0.750000      0.250000      0.855170     Biso  1.000000 C
   C1         1.0     0.250000      0.750000      0.144830     Biso  1.000000 C
   C1         1.0     0.250000      0.750000      0.855170     Biso  1.000000 C
   C1         1.0     0.750000      0.250000      0.144830     Biso  1.000000 C
   C1         1.0     0.144830      0.250000      0.250000     Biso  1.000000 C
   C1         1.0     0.855170      0.750000      0.750000     Biso  1.000000 C
   C1         1.0     0.144830      0.750000      0.750000     Biso  1.000000 C
   C1         1.0     0.855170      0.250000      0.250000     Biso  1.000000 C
   C1         1.0     0.855170      0.750000      0.250000     Biso  1.000000 C
   C1         1.0     0.144830      0.250000      0.750000     Biso  1.000000 C
   C1         1.0     0.855170      0.250000      0.750000     Biso  1.000000 C
   C1         1.0     0.144830      0.750000      0.250000     Biso  1.000000 C
   C1         1.0     0.250000      0.144830      0.250000     Biso  1.000000 C
   C1         1.0     0.750000      0.855170      0.750000     Biso  1.000000 C
   C1         1.0     0.750000      0.144830      0.750000     Biso  1.000000 C
   C1         1.0     0.250000      0.855170      0.250000     Biso  1.000000 C
   C1         1.0     0.250000      0.855170      0.750000     Biso  1.000000 C
   C1         1.0     0.750000      0.144830      0.250000     Biso  1.000000 C
   C1         1.0     0.750000      0.855170      0.250000     Biso  1.000000 C
   C1         1.0     0.250000      0.144830      0.750000     Biso  1.000000 C
   C1         1.0     0.250000      0.750000      0.644830     Biso  1.000000 C
   C1         1.0     0.750000      0.250000      0.355170     Biso  1.000000 C
   C1         1.0     0.750000      0.250000      0.644830     Biso  1.000000 C
   C1         1.0     0.250000      0.750000      0.355170     Biso  1.000000 C
   C1         1.0     0.750000      0.750000      0.355170     Biso  1.000000 C
   C1         1.0     0.250000      0.250000      0.644830     Biso  1.000000 C
   C1         1.0     0.250000      0.250000      0.355170     Biso  1.000000 C
   C1         1.0     0.750000      0.750000      0.644830     Biso  1.000000 C
   C1         1.0     0.250000      0.644830      0.750000     Biso  1.000000 C
   C1         1.0     0.750000      0.355170      0.250000     Biso  1.000000 C
   C1         1.0     0.750000      0.644830      0.250000     Biso  1.000000 C
   C1         1.0     0.250000      0.355170      0.750000     Biso  1.000000 C
   C1         1.0     0.250000      0.355170      0.250000     Biso  1.000000 C
   C1         1.0     0.750000      0.644830      0.750000     Biso  1.000000 C
   C1         1.0     0.750000      0.355170      0.750000     Biso  1.000000 C
   C1         1.0     0.250000      0.644830      0.250000     Biso  1.000000 C
   C1         1.0     0.644830      0.250000      0.750000     Biso  1.000000 C
   C1         1.0     0.355170      0.750000      0.250000     Biso  1.000000 C
   C1         1.0     0.644830      0.750000      0.250000     Biso  1.000000 C
   C1         1.0     0.355170      0.250000      0.750000     Biso  1.000000 C
   C1         1.0     0.355170      0.750000      0.750000     Biso  1.000000 C
   C1         1.0     0.644830      0.250000      0.250000     Biso  1.000000 C
   C1         1.0     0.355170      0.250000      0.250000     Biso  1.000000 C
   C1         1.0     0.644830      0.750000      0.750000     Biso  1.000000 C
   C2         1.0     0.250000      0.250000      0.102780     Biso  1.000000 C
   C2         1.0     0.750000      0.750000      0.897220     Biso  1.000000 C
   C2         1.0     0.750000      0.750000      0.102780     Biso  1.000000 C
   C2         1.0     0.250000      0.250000      0.897220     Biso  1.000000 C
   C2         1.0     0.750000      0.250000      0.897220     Biso  1.000000 C
   C2         1.0     0.250000      0.750000      0.102780     Biso  1.000000 C
   C2         1.0     0.250000      0.750000      0.897220     Biso  1.000000 C
   C2         1.0     0.750000      0.250000      0.102780     Biso  1.000000 C
   C2         1.0     0.102780      0.250000      0.250000     Biso  1.000000 C
   C2         1.0     0.897220      0.750000      0.750000     Biso  1.000000 C
   C2         1.0     0.102780      0.750000      0.750000     Biso  1.000000 C
   C2         1.0     0.897220      0.250000      0.250000     Biso  1.000000 C
   C2         1.0     0.897220      0.750000      0.250000     Biso  1.000000 C
   C2         1.0     0.102780      0.250000      0.750000     Biso  1.000000 C
   C2         1.0     0.897220      0.250000      0.750000     Biso  1.000000 C
   C2         1.0     0.102780      0.750000      0.250000     Biso  1.000000 C
   C2         1.0     0.250000      0.102780      0.250000     Biso  1.000000 C
   C2         1.0     0.750000      0.897220      0.750000     Biso  1.000000 C
   C2         1.0     0.750000      0.102780      0.750000     Biso  1.000000 C
   C2         1.0     0.250000      0.897220      0.250000     Biso  1.000000 C
   C2         1.0     0.250000      0.897220      0.750000     Biso  1.000000 C
   C2         1.0     0.750000      0.102780      0.250000     Biso  1.000000 C
   C2         1.0     0.750000      0.897220      0.250000     Biso  1.000000 C
   C2         1.0     0.250000      0.102780      0.750000     Biso  1.000000 C
   C2         1.0     0.250000      0.750000      0.602780     Biso  1.000000 C
   C2         1.0     0.750000      0.250000      0.397220     Biso  1.000000 C
   C2         1.0     0.750000      0.250000      0.602780     Biso  1.000000 C
   C2         1.0     0.250000      0.750000      0.397220     Biso  1.000000 C
   C2         1.0     0.750000      0.750000      0.397220     Biso  1.000000 C
   C2         1.0     0.250000      0.250000      0.602780     Biso  1.000000 C
   C2         1.0     0.250000      0.250000      0.397220     Biso  1.000000 C
   C2         1.0     0.750000      0.750000      0.602780     Biso  1.000000 C
   C2         1.0     0.250000      0.602780      0.750000     Biso  1.000000 C
   C2         1.0     0.750000      0.397220      0.250000     Biso  1.000000 C
   C2         1.0     0.750000      0.602780      0.250000     Biso  1.000000 C
   C2         1.0     0.250000      0.397220      0.750000     Biso  1.000000 C
   C2         1.0     0.250000      0.397220      0.250000     Biso  1.000000 C
   C2         1.0     0.750000      0.602780      0.750000     Biso  1.000000 C
   C2         1.0     0.750000      0.397220      0.750000     Biso  1.000000 C
   C2         1.0     0.250000      0.602780      0.250000     Biso  1.000000 C
   C2         1.0     0.602780      0.250000      0.750000     Biso  1.000000 C
   C2         1.0     0.397220      0.750000      0.250000     Biso  1.000000 C
   C2         1.0     0.602780      0.750000      0.250000     Biso  1.000000 C
   C2         1.0     0.397220      0.250000      0.750000     Biso  1.000000 C
   C2         1.0     0.397220      0.750000      0.750000     Biso  1.000000 C
   C2         1.0     0.602780      0.250000      0.250000     Biso  1.000000 C
   C2         1.0     0.397220      0.250000      0.250000     Biso  1.000000 C
   C2         1.0     0.602780      0.750000      0.750000     Biso  1.000000 C
   C3         1.0     0.274740      0.225260      0.082210     Biso  1.000000 C
   C3         1.0     0.725260      0.774740      0.917790     Biso  1.000000 C
   C3         1.0     0.725260      0.774740      0.082210     Biso  1.000000 C
   C3         1.0     0.274740      0.225260      0.917790     Biso  1.000000 C
   C3         1.0     0.725260      0.225260      0.917790     Biso  1.000000 C
   C3         1.0     0.274740      0.774740      0.082210     Biso  1.000000 C
   C3         1.0     0.274740      0.774740      0.917790     Biso  1.000000 C
   C3         1.0     0.725260      0.225260      0.082210     Biso  1.000000 C
   C3         1.0     0.082210      0.274740      0.225260     Biso  1.000000 C
   C3         1.0     0.917790      0.725260      0.774740     Biso  1.000000 C
   C3         1.0     0.082210      0.725260      0.774740     Biso  1.000000 C
   C3         1.0     0.917790      0.274740      0.225260     Biso  1.000000 C
   C3         1.0     0.917790      0.725260      0.225260     Biso  1.000000 C
   C3         1.0     0.082210      0.274740      0.774740     Biso  1.000000 C
   C3         1.0     0.917790      0.274740      0.774740     Biso  1.000000 C
   C3         1.0     0.082210      0.725260      0.225260     Biso  1.000000 C
   C3         1.0     0.225260      0.082210      0.274740     Biso  1.000000 C
   C3         1.0     0.774740      0.917790      0.725260     Biso  1.000000 C
   C3         1.0     0.774740      0.082210      0.725260     Biso  1.000000 C
   C3         1.0     0.225260      0.917790      0.274740     Biso  1.000000 C
   C3         1.0     0.225260      0.917790      0.725260     Biso  1.000000 C
   C3         1.0     0.774740      0.082210      0.274740     Biso  1.000000 C
   C3         1.0     0.774740      0.917790      0.274740     Biso  1.000000 C
   C3         1.0     0.225260      0.082210      0.725260     Biso  1.000000 C
   C3         1.0     0.225260      0.274740      0.917790     Biso  1.000000 C
   C3         1.0     0.774740      0.725260      0.082210     Biso  1.000000 C
   C3         1.0     0.774740      0.725260      0.917790     Biso  1.000000 C
   C3         1.0     0.225260      0.274740      0.082210     Biso  1.000000 C
   C3         1.0     0.225260      0.725260      0.082210     Biso  1.000000 C
   C3         1.0     0.774740      0.274740      0.917790     Biso  1.000000 C
   C3         1.0     0.774740      0.274740      0.082210     Biso  1.000000 C
   C3         1.0     0.225260      0.725260      0.917790     Biso  1.000000 C
   C3         1.0     0.274740      0.082210      0.774740     Biso  1.000000 C
   C3         1.0     0.725260      0.917790      0.225260     Biso  1.000000 C
   C3         1.0     0.725260      0.082210      0.225260     Biso  1.000000 C
   C3         1.0     0.274740      0.917790      0.774740     Biso  1.000000 C
   C3         1.0     0.725260      0.917790      0.774740     Biso  1.000000 C
   C3         1.0     0.274740      0.082210      0.225260     Biso  1.000000 C
   C3         1.0     0.274740      0.917790      0.225260     Biso  1.000000 C
   C3         1.0     0.725260      0.082210      0.774740     Biso  1.000000 C
   C3         1.0     0.082210      0.225260      0.725260     Biso  1.000000 C
   C3         1.0     0.917790      0.774740      0.274740     Biso  1.000000 C
   C3         1.0     0.082210      0.774740      0.274740     Biso  1.000000 C
   C3         1.0     0.917790      0.225260      0.725260     Biso  1.000000 C
   C3         1.0     0.917790      0.225260      0.274740     Biso  1.000000 C
   C3         1.0     0.082210      0.774740      0.725260     Biso  1.000000 C
   C3         1.0     0.917790      0.774740      0.725260     Biso  1.000000 C
   C3         1.0     0.082210      0.225260      0.274740     Biso  1.000000 C
   C3         1.0     0.274740      0.725260      0.582210     Biso  1.000000 C
   C3         1.0     0.725260      0.274740      0.417790     Biso  1.000000 C
   C3         1.0     0.725260      0.274740      0.582210     Biso  1.000000 C
   C3         1.0     0.274740      0.725260      0.417790     Biso  1.000000 C
   C3         1.0     0.725260      0.725260      0.417790     Biso  1.000000 C
   C3         1.0     0.274740      0.274740      0.582210     Biso  1.000000 C
   C3         1.0     0.274740      0.274740      0.417790     Biso  1.000000 C
   C3         1.0     0.725260      0.725260      0.582210     Biso  1.000000 C
   C3         1.0     0.225260      0.582210      0.774740     Biso  1.000000 C
   C3         1.0     0.774740      0.417790      0.225260     Biso  1.000000 C
   C3         1.0     0.774740      0.582210      0.225260     Biso  1.000000 C
   C3         1.0     0.225260      0.417790      0.774740     Biso  1.000000 C
   C3         1.0     0.225260      0.417790      0.225260     Biso  1.000000 C
   C3         1.0     0.774740      0.582210      0.774740     Biso  1.000000 C
   C3         1.0     0.774740      0.417790      0.774740     Biso  1.000000 C
   C3         1.0     0.225260      0.582210      0.225260     Biso  1.000000 C
   C3         1.0     0.225260      0.774740      0.417790     Biso  1.000000 C
   C3         1.0     0.774740      0.225260      0.582210     Biso  1.000000 C
   C3         1.0     0.774740      0.225260      0.417790     Biso  1.000000 C
   C3         1.0     0.225260      0.774740      0.582210     Biso  1.000000 C
   C3         1.0     0.225260      0.225260      0.582210     Biso  1.000000 C
   C3         1.0     0.774740      0.774740      0.417790     Biso  1.000000 C
   C3         1.0     0.774740      0.774740      0.582210     Biso  1.000000 C
   C3         1.0     0.225260      0.225260      0.417790     Biso  1.000000 C
   C3         1.0     0.274740      0.582210      0.274740     Biso  1.000000 C
   C3         1.0     0.725260      0.417790      0.725260     Biso  1.000000 C
   C3         1.0     0.725260      0.582210      0.725260     Biso  1.000000 C
   C3         1.0     0.274740      0.417790      0.274740     Biso  1.000000 C
   C3         1.0     0.725260      0.417790      0.274740     Biso  1.000000 C
   C3         1.0     0.274740      0.582210      0.725260     Biso  1.000000 C
   C3         1.0     0.274740      0.417790      0.725260     Biso  1.000000 C
   C3         1.0     0.725260      0.582210      0.274740     Biso  1.000000 C
   C3         1.0     0.582210      0.274740      0.725260     Biso  1.000000 C
   C3         1.0     0.417790      0.725260      0.274740     Biso  1.000000 C
   C3         1.0     0.582210      0.725260      0.274740     Biso  1.000000 C
   C3         1.0     0.417790      0.274740      0.725260     Biso  1.000000 C
   C3         1.0     0.417790      0.725260      0.725260     Biso  1.000000 C
   C3         1.0     0.582210      0.274740      0.274740     Biso  1.000000 C
   C3         1.0     0.417790      0.274740      0.274740     Biso  1.000000 C
   C3         1.0     0.582210      0.725260      0.725260     Biso  1.000000 C
   C3         1.0     0.582210      0.225260      0.225260     Biso  1.000000 C
   C3         1.0     0.417790      0.774740      0.774740     Biso  1.000000 C
   C3         1.0     0.582210      0.774740      0.774740     Biso  1.000000 C
   C3         1.0     0.417790      0.225260      0.225260     Biso  1.000000 C
   C3         1.0     0.417790      0.225260      0.774740     Biso  1.000000 C
   C3         1.0     0.582210      0.774740      0.225260     Biso  1.000000 C
   C3         1.0     0.417790      0.774740      0.225260     Biso  1.000000 C
   C3         1.0     0.582210      0.225260      0.774740     Biso  1.000000 C
   C4         1.0     0.274970      0.225030      0.041300     Biso  1.000000 C
   C4         1.0     0.725030      0.774970      0.958700     Biso  1.000000 C
   C4         1.0     0.725030      0.774970      0.041300     Biso  1.000000 C
   C4         1.0     0.274970      0.225030      0.958700     Biso  1.000000 C
   C4         1.0     0.725030      0.225030      0.958700     Biso  1.000000 C
   C4         1.0     0.274970      0.774970      0.041300     Biso  1.000000 C
   C4         1.0     0.274970      0.774970      0.958700     Biso  1.000000 C
   C4         1.0     0.725030      0.225030      0.041300     Biso  1.000000 C
   C4         1.0     0.041300      0.274970      0.225030     Biso  1.000000 C
   C4         1.0     0.958700      0.725030      0.774970     Biso  1.000000 C
   C4         1.0     0.041300      0.725030      0.774970     Biso  1.000000 C
   C4         1.0     0.958700      0.274970      0.225030     Biso  1.000000 C
   C4         1.0     0.958700      0.725030      0.225030     Biso  1.000000 C
   C4         1.0     0.041300      0.274970      0.774970     Biso  1.000000 C
   C4         1.0     0.958700      0.274970      0.774970     Biso  1.000000 C
   C4         1.0     0.041300      0.725030      0.225030     Biso  1.000000 C
   C4         1.0     0.225030      0.041300      0.274970     Biso  1.000000 C
   C4         1.0     0.774970      0.958700      0.725030     Biso  1.000000 C
   C4         1.0     0.774970      0.041300      0.725030     Biso  1.000000 C
   C4         1.0     0.225030      0.958700      0.274970     Biso  1.000000 C
   C4         1.0     0.225030      0.958700      0.725030     Biso  1.000000 C
   C4         1.0     0.774970      0.041300      0.274970     Biso  1.000000 C
   C4         1.0     0.774970      0.958700      0.274970     Biso  1.000000 C
   C4         1.0     0.225030      0.041300      0.725030     Biso  1.000000 C
   C4         1.0     0.225030      0.274970      0.958700     Biso  1.000000 C
   C4         1.0     0.774970      0.725030      0.041300     Biso  1.000000 C
   C4         1.0     0.774970      0.725030      0.958700     Biso  1.000000 C
   C4         1.0     0.225030      0.274970      0.041300     Biso  1.000000 C
   C4         1.0     0.225030      0.725030      0.041300     Biso  1.000000 C
   C4         1.0     0.774970      0.274970      0.958700     Biso  1.000000 C
   C4         1.0     0.774970      0.274970      0.041300     Biso  1.000000 C
   C4         1.0     0.225030      0.725030      0.958700     Biso  1.000000 C
   C4         1.0     0.274970      0.041300      0.774970     Biso  1.000000 C
   C4         1.0     0.725030      0.958700      0.225030     Biso  1.000000 C
   C4         1.0     0.725030      0.041300      0.225030     Biso  1.000000 C
   C4         1.0     0.274970      0.958700      0.774970     Biso  1.000000 C
   C4         1.0     0.725030      0.958700      0.774970     Biso  1.000000 C
   C4         1.0     0.274970      0.041300      0.225030     Biso  1.000000 C
   C4         1.0     0.274970      0.958700      0.225030     Biso  1.000000 C
   C4         1.0     0.725030      0.041300      0.774970     Biso  1.000000 C
   C4         1.0     0.041300      0.225030      0.725030     Biso  1.000000 C
   C4         1.0     0.958700      0.774970      0.274970     Biso  1.000000 C
   C4         1.0     0.041300      0.774970      0.274970     Biso  1.000000 C
   C4         1.0     0.958700      0.225030      0.725030     Biso  1.000000 C
   C4         1.0     0.958700      0.225030      0.274970     Biso  1.000000 C
   C4         1.0     0.041300      0.774970      0.725030     Biso  1.000000 C
   C4         1.0     0.958700      0.774970      0.725030     Biso  1.000000 C
   C4         1.0     0.041300      0.225030      0.274970     Biso  1.000000 C
   C4         1.0     0.274970      0.725030      0.541300     Biso  1.000000 C
   C4         1.0     0.725030      0.274970      0.458700     Biso  1.000000 C
   C4         1.0     0.725030      0.274970      0.541300     Biso  1.000000 C
   C4         1.0     0.274970      0.725030      0.458700     Biso  1.000000 C
   C4         1.0     0.725030      0.725030      0.458700     Biso  1.000000 C
   C4         1.0     0.274970      0.274970      0.541300     Biso  1.000000 C
   C4         1.0     0.274970      0.274970      0.458700     Biso  1.000000 C
   C4         1.0     0.725030      0.725030      0.541300     Biso  1.000000 C
   C4         1.0     0.225030      0.541300      0.774970     Biso  1.000000 C
   C4         1.0     0.774970      0.458700      0.225030     Biso  1.000000 C
   C4         1.0     0.774970      0.541300      0.225030     Biso  1.000000 C
   C4         1.0     0.225030      0.458700      0.774970     Biso  1.000000 C
   C4         1.0     0.225030      0.458700      0.225030     Biso  1.000000 C
   C4         1.0     0.774970      0.541300      0.774970     Biso  1.000000 C
   C4         1.0     0.774970      0.458700      0.774970     Biso  1.000000 C
   C4         1.0     0.225030      0.541300      0.225030     Biso  1.000000 C
   C4         1.0     0.225030      0.774970      0.458700     Biso  1.000000 C
   C4         1.0     0.774970      0.225030      0.541300     Biso  1.000000 C
   C4         1.0     0.774970      0.225030      0.458700     Biso  1.000000 C
   C4         1.0     0.225030      0.774970      0.541300     Biso  1.000000 C
   C4         1.0     0.225030      0.225030      0.541300     Biso  1.000000 C
   C4         1.0     0.774970      0.774970      0.458700     Biso  1.000000 C
   C4         1.0     0.774970      0.774970      0.541300     Biso  1.000000 C
   C4         1.0     0.225030      0.225030      0.458700     Biso  1.000000 C
   C4         1.0     0.274970      0.541300      0.274970     Biso  1.000000 C
   C4         1.0     0.725030      0.458700      0.725030     Biso  1.000000 C
   C4         1.0     0.725030      0.541300      0.725030     Biso  1.000000 C
   C4         1.0     0.274970      0.458700      0.274970     Biso  1.000000 C
   C4         1.0     0.725030      0.458700      0.274970     Biso  1.000000 C
   C4         1.0     0.274970      0.541300      0.725030     Biso  1.000000 C
   C4         1.0     0.274970      0.458700      0.725030     Biso  1.000000 C
   C4         1.0     0.725030      0.541300      0.274970     Biso  1.000000 C
   C4         1.0     0.541300      0.274970      0.725030     Biso  1.000000 C
   C4         1.0     0.458700      0.725030      0.274970     Biso  1.000000 C
   C4         1.0     0.541300      0.725030      0.274970     Biso  1.000000 C
   C4         1.0     0.458700      0.274970      0.725030     Biso  1.000000 C
   C4         1.0     0.458700      0.725030      0.725030     Biso  1.000000 C
   C4         1.0     0.541300      0.274970      0.274970     Biso  1.000000 C
   C4         1.0     0.458700      0.274970      0.274970     Biso  1.000000 C
   C4         1.0     0.541300      0.725030      0.725030     Biso  1.000000 C
   C4         1.0     0.541300      0.225030      0.225030     Biso  1.000000 C
   C4         1.0     0.458700      0.774970      0.774970     Biso  1.000000 C
   C4         1.0     0.541300      0.774970      0.774970     Biso  1.000000 C
   C4         1.0     0.458700      0.225030      0.225030     Biso  1.000000 C
   C4         1.0     0.458700      0.225030      0.774970     Biso  1.000000 C
   C4         1.0     0.541300      0.774970      0.225030     Biso  1.000000 C
   C4         1.0     0.458700      0.774970      0.225030     Biso  1.000000 C
   C4         1.0     0.541300      0.225030      0.774970     Biso  1.000000 C
   C5         1.0     0.250000      0.250000      0.020610     Biso  1.000000 C
   C5         1.0     0.750000      0.750000      0.979390     Biso  1.000000 C
   C5         1.0     0.750000      0.750000      0.020610     Biso  1.000000 C
   C5         1.0     0.250000      0.250000      0.979390     Biso  1.000000 C
   C5         1.0     0.750000      0.250000      0.979390     Biso  1.000000 C
   C5         1.0     0.250000      0.750000      0.020610     Biso  1.000000 C
   C5         1.0     0.250000      0.750000      0.979390     Biso  1.000000 C
   C5         1.0     0.750000      0.250000      0.020610     Biso  1.000000 C
   C5         1.0     0.020610      0.250000      0.250000     Biso  1.000000 C
   C5         1.0     0.979390      0.750000      0.750000     Biso  1.000000 C
   C5         1.0     0.020610      0.750000      0.750000     Biso  1.000000 C
   C5         1.0     0.979390      0.250000      0.250000     Biso  1.000000 C
   C5         1.0     0.979390      0.750000      0.250000     Biso  1.000000 C
   C5         1.0     0.020610      0.250000      0.750000     Biso  1.000000 C
   C5         1.0     0.979390      0.250000      0.750000     Biso  1.000000 C
   C5         1.0     0.020610      0.750000      0.250000     Biso  1.000000 C
   C5         1.0     0.250000      0.020610      0.250000     Biso  1.000000 C
   C5         1.0     0.750000      0.979390      0.750000     Biso  1.000000 C
   C5         1.0     0.750000      0.020610      0.750000     Biso  1.000000 C
   C5         1.0     0.250000      0.979390      0.250000     Biso  1.000000 C
   C5         1.0     0.250000      0.979390      0.750000     Biso  1.000000 C
   C5         1.0     0.750000      0.020610      0.250000     Biso  1.000000 C
   C5         1.0     0.750000      0.979390      0.250000     Biso  1.000000 C
   C5         1.0     0.250000      0.020610      0.750000     Biso  1.000000 C
   C5         1.0     0.250000      0.750000      0.520610     Biso  1.000000 C
   C5         1.0     0.750000      0.250000      0.479390     Biso  1.000000 C
   C5         1.0     0.750000      0.250000      0.520610     Biso  1.000000 C
   C5         1.0     0.250000      0.750000      0.479390     Biso  1.000000 C
   C5         1.0     0.750000      0.750000      0.479390     Biso  1.000000 C
   C5         1.0     0.250000      0.250000      0.520610     Biso  1.000000 C
   C5         1.0     0.250000      0.250000      0.479390     Biso  1.000000 C
   C5         1.0     0.750000      0.750000      0.520610     Biso  1.000000 C
   C5         1.0     0.250000      0.520610      0.750000     Biso  1.000000 C
   C5         1.0     0.750000      0.479390      0.250000     Biso  1.000000 C
   C5         1.0     0.750000      0.520610      0.250000     Biso  1.000000 C
   C5         1.0     0.250000      0.479390      0.750000     Biso  1.000000 C
   C5         1.0     0.250000      0.479390      0.250000     Biso  1.000000 C
   C5         1.0     0.750000      0.520610      0.750000     Biso  1.000000 C
   C5         1.0     0.750000      0.479390      0.750000     Biso  1.000000 C
   C5         1.0     0.250000      0.520610      0.250000     Biso  1.000000 C
   C5         1.0     0.520610      0.250000      0.750000     Biso  1.000000 C
   C5         1.0     0.479390      0.750000      0.250000     Biso  1.000000 C
   C5         1.0     0.520610      0.750000      0.250000     Biso  1.000000 C
   C5         1.0     0.479390      0.250000      0.750000     Biso  1.000000 C
   C5         1.0     0.479390      0.750000      0.750000     Biso  1.000000 C
   C5         1.0     0.520610      0.250000      0.250000     Biso  1.000000 C
   C5         1.0     0.479390      0.250000      0.250000     Biso  1.000000 C
   C5         1.0     0.520610      0.750000      0.750000     Biso  1.000000 C
   H1         1.0     0.291890      0.208110      0.096210     Biso  1.000000 H
   H1         1.0     0.708110      0.791890      0.903790     Biso  1.000000 H
   H1         1.0     0.708110      0.791890      0.096210     Biso  1.000000 H
   H1         1.0     0.291890      0.208110      0.903790     Biso  1.000000 H
   H1         1.0     0.708110      0.208110      0.903790     Biso  1.000000 H
   H1         1.0     0.291890      0.791890      0.096210     Biso  1.000000 H
   H1         1.0     0.291890      0.791890      0.903790     Biso  1.000000 H
   H1         1.0     0.708110      0.208110      0.096210     Biso  1.000000 H
   H1         1.0     0.096210      0.291890      0.208110     Biso  1.000000 H
   H1         1.0     0.903790      0.708110      0.791890     Biso  1.000000 H
   H1         1.0     0.096210      0.708110      0.791890     Biso  1.000000 H
   H1         1.0     0.903790      0.291890      0.208110     Biso  1.000000 H
   H1         1.0     0.903790      0.708110      0.208110     Biso  1.000000 H
   H1         1.0     0.096210      0.291890      0.791890     Biso  1.000000 H
   H1         1.0     0.903790      0.291890      0.791890     Biso  1.000000 H
   H1         1.0     0.096210      0.708110      0.208110     Biso  1.000000 H
   H1         1.0     0.208110      0.096210      0.291890     Biso  1.000000 H
   H1         1.0     0.791890      0.903790      0.708110     Biso  1.000000 H
   H1         1.0     0.791890      0.096210      0.708110     Biso  1.000000 H
   H1         1.0     0.208110      0.903790      0.291890     Biso  1.000000 H
   H1         1.0     0.208110      0.903790      0.708110     Biso  1.000000 H
   H1         1.0     0.791890      0.096210      0.291890     Biso  1.000000 H
   H1         1.0     0.791890      0.903790      0.291890     Biso  1.000000 H
   H1         1.0     0.208110      0.096210      0.708110     Biso  1.000000 H
   H1         1.0     0.208110      0.291890      0.903790     Biso  1.000000 H
   H1         1.0     0.791890      0.708110      0.096210     Biso  1.000000 H
   H1         1.0     0.791890      0.708110      0.903790     Biso  1.000000 H
   H1         1.0     0.208110      0.291890      0.096210     Biso  1.000000 H
   H1         1.0     0.208110      0.708110      0.096210     Biso  1.000000 H
   H1         1.0     0.791890      0.291890      0.903790     Biso  1.000000 H
   H1         1.0     0.791890      0.291890      0.096210     Biso  1.000000 H
   H1         1.0     0.208110      0.708110      0.903790     Biso  1.000000 H
   H1         1.0     0.291890      0.096210      0.791890     Biso  1.000000 H
   H1         1.0     0.708110      0.903790      0.208110     Biso  1.000000 H
   H1         1.0     0.708110      0.096210      0.208110     Biso  1.000000 H
   H1         1.0     0.291890      0.903790      0.791890     Biso  1.000000 H
   H1         1.0     0.708110      0.903790      0.791890     Biso  1.000000 H
   H1         1.0     0.291890      0.096210      0.208110     Biso  1.000000 H
   H1         1.0     0.291890      0.903790      0.208110     Biso  1.000000 H
   H1         1.0     0.708110      0.096210      0.791890     Biso  1.000000 H
   H1         1.0     0.096210      0.208110      0.708110     Biso  1.000000 H
   H1         1.0     0.903790      0.791890      0.291890     Biso  1.000000 H
   H1         1.0     0.096210      0.791890      0.291890     Biso  1.000000 H
   H1         1.0     0.903790      0.208110      0.708110     Biso  1.000000 H
   H1         1.0     0.903790      0.208110      0.291890     Biso  1.000000 H
   H1         1.0     0.096210      0.791890      0.708110     Biso  1.000000 H
   H1         1.0     0.903790      0.791890      0.708110     Biso  1.000000 H
   H1         1.0     0.096210      0.208110      0.291890     Biso  1.000000 H
   H1         1.0     0.291890      0.708110      0.596210     Biso  1.000000 H
   H1         1.0     0.708110      0.291890      0.403790     Biso  1.000000 H
   H1         1.0     0.708110      0.291890      0.596210     Biso  1.000000 H
   H1         1.0     0.291890      0.708110      0.403790     Biso  1.000000 H
   H1         1.0     0.708110      0.708110      0.403790     Biso  1.000000 H
   H1         1.0     0.291890      0.291890      0.596210     Biso  1.000000 H
   H1         1.0     0.291890      0.291890      0.403790     Biso  1.000000 H
   H1         1.0     0.708110      0.708110      0.596210     Biso  1.000000 H
   H1         1.0     0.208110      0.596210      0.791890     Biso  1.000000 H
   H1         1.0     0.791890      0.403790      0.208110     Biso  1.000000 H
   H1         1.0     0.791890      0.596210      0.208110     Biso  1.000000 H
   H1         1.0     0.208110      0.403790      0.791890     Biso  1.000000 H
   H1         1.0     0.208110      0.403790      0.208110     Biso  1.000000 H
   H1         1.0     0.791890      0.596210      0.791890     Biso  1.000000 H
   H1         1.0     0.791890      0.403790      0.791890     Biso  1.000000 H
   H1         1.0     0.208110      0.596210      0.208110     Biso  1.000000 H
   H1         1.0     0.208110      0.791890      0.403790     Biso  1.000000 H
   H1         1.0     0.791890      0.208110      0.596210     Biso  1.000000 H
   H1         1.0     0.791890      0.208110      0.403790     Biso  1.000000 H
   H1         1.0     0.208110      0.791890      0.596210     Biso  1.000000 H
   H1         1.0     0.208110      0.208110      0.596210     Biso  1.000000 H
   H1         1.0     0.791890      0.791890      0.403790     Biso  1.000000 H
   H1         1.0     0.791890      0.791890      0.596210     Biso  1.000000 H
   H1         1.0     0.208110      0.208110      0.403790     Biso  1.000000 H
   H1         1.0     0.291890      0.596210      0.291890     Biso  1.000000 H
   H1         1.0     0.708110      0.403790      0.708110     Biso  1.000000 H
   H1         1.0     0.708110      0.596210      0.708110     Biso  1.000000 H
   H1         1.0     0.291890      0.403790      0.291890     Biso  1.000000 H
   H1         1.0     0.708110      0.403790      0.291890     Biso  1.000000 H
   H1         1.0     0.291890      0.596210      0.708110     Biso  1.000000 H
   H1         1.0     0.291890      0.403790      0.708110     Biso  1.000000 H
   H1         1.0     0.708110      0.596210      0.291890     Biso  1.000000 H
   H1         1.0     0.596210      0.291890      0.708110     Biso  1.000000 H
   H1         1.0     0.403790      0.708110      0.291890     Biso  1.000000 H
   H1         1.0     0.596210      0.708110      0.291890     Biso  1.000000 H
   H1         1.0     0.403790      0.291890      0.708110     Biso  1.000000 H
   H1         1.0     0.403790      0.708110      0.708110     Biso  1.000000 H
   H1         1.0     0.596210      0.291890      0.291890     Biso  1.000000 H
   H1         1.0     0.403790      0.291890      0.291890     Biso  1.000000 H
   H1         1.0     0.596210      0.708110      0.708110     Biso  1.000000 H
   H1         1.0     0.596210      0.208110      0.208110     Biso  1.000000 H
   H1         1.0     0.403790      0.791890      0.791890     Biso  1.000000 H
   H1         1.0     0.596210      0.791890      0.791890     Biso  1.000000 H
   H1         1.0     0.403790      0.208110      0.208110     Biso  1.000000 H
   H1         1.0     0.403790      0.208110      0.791890     Biso  1.000000 H
   H1         1.0     0.596210      0.791890      0.208110     Biso  1.000000 H
   H1         1.0     0.403790      0.791890      0.208110     Biso  1.000000 H
   H1         1.0     0.596210      0.208110      0.791890     Biso  1.000000 H
   H2         1.0     0.292190      0.207810      0.027470     Biso  1.000000 H
   H2         1.0     0.707810      0.792190      0.972530     Biso  1.000000 H
   H2         1.0     0.707810      0.792190      0.027470     Biso  1.000000 H
   H2         1.0     0.292190      0.207810      0.972530     Biso  1.000000 H
   H2         1.0     0.707810      0.207810      0.972530     Biso  1.000000 H
   H2         1.0     0.292190      0.792190      0.027470     Biso  1.000000 H
   H2         1.0     0.292190      0.792190      0.972530     Biso  1.000000 H
   H2         1.0     0.707810      0.207810      0.027470     Biso  1.000000 H
   H2         1.0     0.027470      0.292190      0.207810     Biso  1.000000 H
   H2         1.0     0.972530      0.707810      0.792190     Biso  1.000000 H
   H2         1.0     0.027470      0.707810      0.792190     Biso  1.000000 H
   H2         1.0     0.972530      0.292190      0.207810     Biso  1.000000 H
   H2         1.0     0.972530      0.707810      0.207810     Biso  1.000000 H
   H2         1.0     0.027470      0.292190      0.792190     Biso  1.000000 H
   H2         1.0     0.972530      0.292190      0.792190     Biso  1.000000 H
   H2         1.0     0.027470      0.707810      0.207810     Biso  1.000000 H
   H2         1.0     0.207810      0.027470      0.292190     Biso  1.000000 H
   H2         1.0     0.792190      0.972530      0.707810     Biso  1.000000 H
   H2         1.0     0.792190      0.027470      0.707810     Biso  1.000000 H
   H2         1.0     0.207810      0.972530      0.292190     Biso  1.000000 H
   H2         1.0     0.207810      0.972530      0.707810     Biso  1.000000 H
   H2         1.0     0.792190      0.027470      0.292190     Biso  1.000000 H
   H2         1.0     0.792190      0.972530      0.292190     Biso  1.000000 H
   H2         1.0     0.207810      0.027470      0.707810     Biso  1.000000 H
   H2         1.0     0.207810      0.292190      0.972530     Biso  1.000000 H
   H2         1.0     0.792190      0.707810      0.027470     Biso  1.000000 H
   H2         1.0     0.792190      0.707810      0.972530     Biso  1.000000 H
   H2         1.0     0.207810      0.292190      0.027470     Biso  1.000000 H
   H2         1.0     0.207810      0.707810      0.027470     Biso  1.000000 H
   H2         1.0     0.792190      0.292190      0.972530     Biso  1.000000 H
   H2         1.0     0.792190      0.292190      0.027470     Biso  1.000000 H
   H2         1.0     0.207810      0.707810      0.972530     Biso  1.000000 H
   H2         1.0     0.292190      0.027470      0.792190     Biso  1.000000 H
   H2         1.0     0.707810      0.972530      0.207810     Biso  1.000000 H
   H2         1.0     0.707810      0.027470      0.207810     Biso  1.000000 H
   H2         1.0     0.292190      0.972530      0.792190     Biso  1.000000 H
   H2         1.0     0.707810      0.972530      0.792190     Biso  1.000000 H
   H2         1.0     0.292190      0.027470      0.207810     Biso  1.000000 H
   H2         1.0     0.292190      0.972530      0.207810     Biso  1.000000 H
   H2         1.0     0.707810      0.027470      0.792190     Biso  1.000000 H
   H2         1.0     0.027470      0.207810      0.707810     Biso  1.000000 H
   H2         1.0     0.972530      0.792190      0.292190     Biso  1.000000 H
   H2         1.0     0.027470      0.792190      0.292190     Biso  1.000000 H
   H2         1.0     0.972530      0.207810      0.707810     Biso  1.000000 H
   H2         1.0     0.972530      0.207810      0.292190     Biso  1.000000 H
   H2         1.0     0.027470      0.792190      0.707810     Biso  1.000000 H
   H2         1.0     0.972530      0.792190      0.707810     Biso  1.000000 H
   H2         1.0     0.027470      0.207810      0.292190     Biso  1.000000 H
   H2         1.0     0.292190      0.707810      0.527470     Biso  1.000000 H
   H2         1.0     0.707810      0.292190      0.472530     Biso  1.000000 H
   H2         1.0     0.707810      0.292190      0.527470     Biso  1.000000 H
   H2         1.0     0.292190      0.707810      0.472530     Biso  1.000000 H
   H2         1.0     0.707810      0.707810      0.472530     Biso  1.000000 H
   H2         1.0     0.292190      0.292190      0.527470     Biso  1.000000 H
   H2         1.0     0.292190      0.292190      0.472530     Biso  1.000000 H
   H2         1.0     0.707810      0.707810      0.527470     Biso  1.000000 H
   H2         1.0     0.207810      0.527470      0.792190     Biso  1.000000 H
   H2         1.0     0.792190      0.472530      0.207810     Biso  1.000000 H
   H2         1.0     0.792190      0.527470      0.207810     Biso  1.000000 H
   H2         1.0     0.207810      0.472530      0.792190     Biso  1.000000 H
   H2         1.0     0.207810      0.472530      0.207810     Biso  1.000000 H
   H2         1.0     0.792190      0.527470      0.792190     Biso  1.000000 H
   H2         1.0     0.792190      0.472530      0.792190     Biso  1.000000 H
   H2         1.0     0.207810      0.527470      0.207810     Biso  1.000000 H
   H2         1.0     0.207810      0.792190      0.472530     Biso  1.000000 H
   H2         1.0     0.792190      0.207810      0.527470     Biso  1.000000 H
   H2         1.0     0.792190      0.207810      0.472530     Biso  1.000000 H
   H2         1.0     0.207810      0.792190      0.527470     Biso  1.000000 H
   H2         1.0     0.207810      0.207810      0.527470     Biso  1.000000 H
   H2         1.0     0.792190      0.792190      0.472530     Biso  1.000000 H
   H2         1.0     0.792190      0.792190      0.527470     Biso  1.000000 H
   H2         1.0     0.207810      0.207810      0.472530     Biso  1.000000 H
   H2         1.0     0.292190      0.527470      0.292190     Biso  1.000000 H
   H2         1.0     0.707810      0.472530      0.707810     Biso  1.000000 H
   H2         1.0     0.707810      0.527470      0.707810     Biso  1.000000 H
   H2         1.0     0.292190      0.472530      0.292190     Biso  1.000000 H
   H2         1.0     0.707810      0.472530      0.292190     Biso  1.000000 H
   H2         1.0     0.292190      0.527470      0.707810     Biso  1.000000 H
   H2         1.0     0.292190      0.472530      0.707810     Biso  1.000000 H
   H2         1.0     0.707810      0.527470      0.292190     Biso  1.000000 H
   H2         1.0     0.527470      0.292190      0.707810     Biso  1.000000 H
   H2         1.0     0.472530      0.707810      0.292190     Biso  1.000000 H
   H2         1.0     0.527470      0.707810      0.292190     Biso  1.000000 H
   H2         1.0     0.472530      0.292190      0.707810     Biso  1.000000 H
   H2         1.0     0.472530      0.707810      0.707810     Biso  1.000000 H
   H2         1.0     0.527470      0.292190      0.292190     Biso  1.000000 H
   H2         1.0     0.472530      0.292190      0.292190     Biso  1.000000 H
   H2         1.0     0.527470      0.707810      0.707810     Biso  1.000000 H
   H2         1.0     0.527470      0.207810      0.207810     Biso  1.000000 H
   H2         1.0     0.472530      0.792190      0.792190     Biso  1.000000 H
   H2         1.0     0.527470      0.792190      0.792190     Biso  1.000000 H
   H2         1.0     0.472530      0.207810      0.207810     Biso  1.000000 H
   H2         1.0     0.472530      0.207810      0.792190     Biso  1.000000 H
   H2         1.0     0.527470      0.792190      0.207810     Biso  1.000000 H
   H2         1.0     0.472530      0.792190      0.207810     Biso  1.000000 H
   H2         1.0     0.527470      0.207810      0.792190     Biso  1.000000 H
