#======================================================================

# CRYSTAL DATA

#----------------------------------------------------------------------

data_VESTA_phase_1


_chemical_name_common                  ''
_cell_length_a                         42.98060
_cell_length_b                         42.98060
_cell_length_c                         42.98060
_cell_angle_alpha                      90
_cell_angle_beta                       90
_cell_angle_gamma                      90
_space_group_name_H-M_alt              'P 1'
_space_group_IT_number                 1

loop_
_space_group_symop_operation_xyz
   'x, y, z'

loop_
   _atom_site_label
   _atom_site_occupancy
   _atom_site_fract_x
   _atom_site_fract_y
   _atom_site_fract_z
   _atom_site_adp_type
   _atom_site_B_iso_or_equiv
   _atom_site_type_symbol
   Zn1        1.0     0.224010      0.224010      0.224010     Biso  1.000000 Zn
   O1         1.0     0.250000      0.250000      0.250000     Biso  1.000000 O
   O2         1.0     0.232900      0.232900      0.180990     Biso  1.000000 O
   C1         1.0     0.250000      0.250000      0.165450     Biso  1.000000 C
   C2         1.0     0.250000      0.250000      0.133340     Biso  1.000000 C
   C3         1.0     0.230060      0.230060      0.117450     Biso  1.000000 C
   C4         1.0     0.230100      0.230100      0.084950     Biso  1.000000 C
   C5         1.0     0.250000      0.250000      0.068450     Biso  1.000000 C
   C6         1.0     0.250000      0.250000      0.032950     Biso  1.000000 C
   Zn1        1.0     0.276010      0.276010      0.224010     Biso  1.000000 Zn
   O2         1.0     0.267100      0.267100      0.180990     Biso  1.000000 O
   C3         1.0     0.269960      0.269960      0.117450     Biso  1.000000 C
   C4         1.0     0.269890      0.269890      0.084950     Biso  1.000000 C
   Zn1        1.0     0.276010      0.224010      0.276010     Biso  1.000000 Zn
   O2         1.0     0.267100      0.232900      0.319000     Biso  1.000000 O
   C1         1.0     0.250000      0.250000      0.334550     Biso  1.000000 C
   C2         1.0     0.250000      0.250000      0.366650     Biso  1.000000 C
   C3         1.0     0.269960      0.230060      0.382540     Biso  1.000000 C
   C4         1.0     0.269890      0.230100      0.415050     Biso  1.000000 C
   C5         1.0     0.250000      0.250000      0.431540     Biso  1.000000 C
   C6         1.0     0.250000      0.250000      0.467050     Biso  1.000000 C
   C7         1.0     0.278200      0.250000      0.483660     Biso  1.000000 C
   Zn1        1.0     0.224010      0.276010      0.276010     Biso  1.000000 Zn
   O2         1.0     0.232900      0.267100      0.319000     Biso  1.000000 O
   C3         1.0     0.230060      0.269960      0.382540     Biso  1.000000 C
   C4         1.0     0.230100      0.269890      0.415050     Biso  1.000000 C
   C7         1.0     0.221800      0.250000      0.483660     Biso  1.000000 C
   O2         1.0     0.180990      0.232900      0.232900     Biso  1.000000 O
   C1         1.0     0.165450      0.250000      0.250000     Biso  1.000000 C
   C2         1.0     0.133340      0.250000      0.250000     Biso  1.000000 C
   C3         1.0     0.117450      0.230060      0.230060     Biso  1.000000 C
   C4         1.0     0.084950      0.230100      0.230100     Biso  1.000000 C
   C5         1.0     0.068450      0.250000      0.250000     Biso  1.000000 C
   C6         1.0     0.032950      0.250000      0.250000     Biso  1.000000 C
   C7         1.0     0.016360      0.221800      0.250000     Biso  1.000000 C
   O2         1.0     0.180990      0.267100      0.267100     Biso  1.000000 O
   C3         1.0     0.117450      0.269960      0.269960     Biso  1.000000 C
   C4         1.0     0.084950      0.269890      0.269890     Biso  1.000000 C
   C7         1.0     0.016360      0.278200      0.250000     Biso  1.000000 C
   O2         1.0     0.319000      0.267100      0.232900     Biso  1.000000 O
   C1         1.0     0.334550      0.250000      0.250000     Biso  1.000000 C
   C2         1.0     0.366650      0.250000      0.250000     Biso  1.000000 C
   C3         1.0     0.382540      0.269960      0.230060     Biso  1.000000 C
   C4         1.0     0.415050      0.269890      0.230100     Biso  1.000000 C
   C5         1.0     0.431540      0.250000      0.250000     Biso  1.000000 C
   C6         1.0     0.467050      0.250000      0.250000     Biso  1.000000 C
   O2         1.0     0.319000      0.232900      0.267100     Biso  1.000000 O
   C3         1.0     0.382540      0.230060      0.269960     Biso  1.000000 C
   C4         1.0     0.415050      0.230100      0.269890     Biso  1.000000 C
   O2         1.0     0.232900      0.180990      0.232900     Biso  1.000000 O
   C1         1.0     0.250000      0.165450      0.250000     Biso  1.000000 C
   C2         1.0     0.250000      0.133340      0.250000     Biso  1.000000 C
   C3         1.0     0.230060      0.117450      0.230060     Biso  1.000000 C
   C4         1.0     0.230100      0.084950      0.230100     Biso  1.000000 C
   C5         1.0     0.250000      0.068450      0.250000     Biso  1.000000 C
   C6         1.0     0.250000      0.032950      0.250000     Biso  1.000000 C
   C7         1.0     0.250000      0.016360      0.221800     Biso  1.000000 C
   O2         1.0     0.267100      0.180990      0.267100     Biso  1.000000 O
   C3         1.0     0.269960      0.117450      0.269960     Biso  1.000000 C
   C4         1.0     0.269890      0.084950      0.269890     Biso  1.000000 C
   C7         1.0     0.250000      0.016360      0.278200     Biso  1.000000 C
   O2         1.0     0.232900      0.319000      0.267100     Biso  1.000000 O
   C1         1.0     0.250000      0.334550      0.250000     Biso  1.000000 C
   C2         1.0     0.250000      0.366650      0.250000     Biso  1.000000 C
   C3         1.0     0.230060      0.382540      0.269960     Biso  1.000000 C
   C4         1.0     0.230100      0.415050      0.269890     Biso  1.000000 C
   C5         1.0     0.250000      0.431540      0.250000     Biso  1.000000 C
   C6         1.0     0.250000      0.467050      0.250000     Biso  1.000000 C
   O2         1.0     0.267100      0.319000      0.232900     Biso  1.000000 O
   C3         1.0     0.269960      0.382540      0.230060     Biso  1.000000 C
   C4         1.0     0.269890      0.415050      0.230100     Biso  1.000000 C
   C7         1.0     0.250000      0.278200      0.016360     Biso  1.000000 C
   C7         1.0     0.250000      0.221800      0.016360     Biso  1.000000 C
   C7         1.0     0.278200      0.483660      0.250000     Biso  1.000000 C
   C7         1.0     0.221800      0.483660      0.250000     Biso  1.000000 C
   C7         1.0     0.483660      0.250000      0.221800     Biso  1.000000 C
   C7         1.0     0.483660      0.250000      0.278200     Biso  1.000000 C
   O1         1.0     0.250000      0.250000      0.750000     Biso  1.000000 O
   C1         1.0     0.250000      0.250000      0.665440     Biso  1.000000 C
   C2         1.0     0.250000      0.250000      0.633360     Biso  1.000000 C
   C5         1.0     0.250000      0.250000      0.568440     Biso  1.000000 C
   C6         1.0     0.250000      0.250000      0.532960     Biso  1.000000 C
   C7         1.0     0.221800      0.250000      0.516350     Biso  1.000000 C
   C7         1.0     0.278200      0.250000      0.516350     Biso  1.000000 C
   C1         1.0     0.250000      0.250000      0.834540     Biso  1.000000 C
   C2         1.0     0.250000      0.250000      0.866650     Biso  1.000000 C
   C5         1.0     0.250000      0.250000      0.931560     Biso  1.000000 C
   C6         1.0     0.250000      0.250000      0.967040     Biso  1.000000 C
   C1         1.0     0.165450      0.250000      0.750000     Biso  1.000000 C
   C2         1.0     0.133340      0.250000      0.750000     Biso  1.000000 C
   C5         1.0     0.068450      0.250000      0.750000     Biso  1.000000 C
   C6         1.0     0.032950      0.250000      0.750000     Biso  1.000000 C
   C7         1.0     0.016360      0.221800      0.750000     Biso  1.000000 C
   C7         1.0     0.016360      0.278200      0.750000     Biso  1.000000 C
   C1         1.0     0.334550      0.250000      0.750000     Biso  1.000000 C
   C2         1.0     0.366650      0.250000      0.750000     Biso  1.000000 C
   C5         1.0     0.431540      0.250000      0.750000     Biso  1.000000 C
   C6         1.0     0.467050      0.250000      0.750000     Biso  1.000000 C
   C1         1.0     0.250000      0.165450      0.750000     Biso  1.000000 C
   C2         1.0     0.250000      0.133340      0.750000     Biso  1.000000 C
   C5         1.0     0.250000      0.068450      0.750000     Biso  1.000000 C
   C6         1.0     0.250000      0.032950      0.750000     Biso  1.000000 C
   C7         1.0     0.250000      0.016360      0.721790     Biso  1.000000 C
   C7         1.0     0.250000      0.016360      0.778210     Biso  1.000000 C
   C1         1.0     0.250000      0.334550      0.750000     Biso  1.000000 C
   C2         1.0     0.250000      0.366650      0.750000     Biso  1.000000 C
   C5         1.0     0.250000      0.431540      0.750000     Biso  1.000000 C
   C6         1.0     0.250000      0.467050      0.750000     Biso  1.000000 C
   Zn1        1.0     0.224010      0.224010      0.776000     Biso  1.000000 Zn
   O2         1.0     0.232900      0.232900      0.819000     Biso  1.000000 O
   C3         1.0     0.230060      0.230060      0.882560     Biso  1.000000 C
   C4         1.0     0.230100      0.230100      0.915040     Biso  1.000000 C
   C7         1.0     0.250000      0.221800      0.983650     Biso  1.000000 C
   Zn1        1.0     0.276010      0.276010      0.776000     Biso  1.000000 Zn
   O2         1.0     0.267100      0.267100      0.819000     Biso  1.000000 O
   C3         1.0     0.269960      0.269960      0.882560     Biso  1.000000 C
   C4         1.0     0.269890      0.269890      0.915040     Biso  1.000000 C
   C7         1.0     0.250000      0.278200      0.983650     Biso  1.000000 C
   Zn1        1.0     0.224010      0.276010      0.724000     Biso  1.000000 Zn
   O2         1.0     0.232900      0.267100      0.681000     Biso  1.000000 O
   C3         1.0     0.230060      0.269960      0.617440     Biso  1.000000 C
   C4         1.0     0.230100      0.269890      0.584960     Biso  1.000000 C
   Zn1        1.0     0.276010      0.224010      0.724000     Biso  1.000000 Zn
   O2         1.0     0.267100      0.232900      0.681000     Biso  1.000000 O
   C3         1.0     0.269960      0.230060      0.617440     Biso  1.000000 C
   C4         1.0     0.269890      0.230100      0.584960     Biso  1.000000 C
   O2         1.0     0.232900      0.180990      0.767090     Biso  1.000000 O
   C3         1.0     0.230060      0.117450      0.769950     Biso  1.000000 C
   C4         1.0     0.230100      0.084950      0.769910     Biso  1.000000 C
   O2         1.0     0.267100      0.180990      0.732890     Biso  1.000000 O
   C3         1.0     0.269960      0.117450      0.730050     Biso  1.000000 C
   C4         1.0     0.269890      0.084950      0.730100     Biso  1.000000 C
   O2         1.0     0.267100      0.319000      0.767090     Biso  1.000000 O
   C3         1.0     0.269960      0.382540      0.769950     Biso  1.000000 C
   C4         1.0     0.269890      0.415050      0.769910     Biso  1.000000 C
   C7         1.0     0.278200      0.483660      0.750000     Biso  1.000000 C
   O2         1.0     0.232900      0.319000      0.732890     Biso  1.000000 O
   C3         1.0     0.230060      0.382540      0.730050     Biso  1.000000 C
   C4         1.0     0.230100      0.415050      0.730100     Biso  1.000000 C
   C7         1.0     0.221800      0.483660      0.750000     Biso  1.000000 C
   O2         1.0     0.180990      0.232900      0.767090     Biso  1.000000 O
   C3         1.0     0.117450      0.230060      0.769950     Biso  1.000000 C
   C4         1.0     0.084950      0.230100      0.769910     Biso  1.000000 C
   O2         1.0     0.180990      0.267100      0.732890     Biso  1.000000 O
   C3         1.0     0.117450      0.269960      0.730050     Biso  1.000000 C
   C4         1.0     0.084950      0.269890      0.730100     Biso  1.000000 C
   O2         1.0     0.319000      0.232900      0.732890     Biso  1.000000 O
   C3         1.0     0.382540      0.230060      0.730050     Biso  1.000000 C
   C4         1.0     0.415050      0.230100      0.730100     Biso  1.000000 C
   C7         1.0     0.483660      0.250000      0.721790     Biso  1.000000 C
   O2         1.0     0.319000      0.267100      0.767090     Biso  1.000000 O
   C3         1.0     0.382540      0.269960      0.769950     Biso  1.000000 C
   C4         1.0     0.415050      0.269890      0.769910     Biso  1.000000 C
   C7         1.0     0.483660      0.250000      0.778210     Biso  1.000000 C
   O1         1.0     0.250000      0.750000      0.250000     Biso  1.000000 O
   C1         1.0     0.250000      0.750000      0.165450     Biso  1.000000 C
   C2         1.0     0.250000      0.750000      0.133340     Biso  1.000000 C
   C5         1.0     0.250000      0.750000      0.068450     Biso  1.000000 C
   C6         1.0     0.250000      0.750000      0.032950     Biso  1.000000 C
   C1         1.0     0.250000      0.750000      0.334550     Biso  1.000000 C
   C2         1.0     0.250000      0.750000      0.366650     Biso  1.000000 C
   C5         1.0     0.250000      0.750000      0.431540     Biso  1.000000 C
   C6         1.0     0.250000      0.750000      0.467050     Biso  1.000000 C
   C7         1.0     0.278200      0.750000      0.483660     Biso  1.000000 C
   C7         1.0     0.221800      0.750000      0.483660     Biso  1.000000 C
   C1         1.0     0.165450      0.750000      0.250000     Biso  1.000000 C
   C2         1.0     0.133340      0.750000      0.250000     Biso  1.000000 C
   C5         1.0     0.068450      0.750000      0.250000     Biso  1.000000 C
   C6         1.0     0.032950      0.750000      0.250000     Biso  1.000000 C
   C7         1.0     0.016360      0.721790      0.250000     Biso  1.000000 C
   C7         1.0     0.016360      0.778210      0.250000     Biso  1.000000 C
   C1         1.0     0.334550      0.750000      0.250000     Biso  1.000000 C
   C2         1.0     0.366650      0.750000      0.250000     Biso  1.000000 C
   C5         1.0     0.431540      0.750000      0.250000     Biso  1.000000 C
   C6         1.0     0.467050      0.750000      0.250000     Biso  1.000000 C
   C1         1.0     0.250000      0.665440      0.250000     Biso  1.000000 C
   C2         1.0     0.250000      0.633360      0.250000     Biso  1.000000 C
   C5         1.0     0.250000      0.568440      0.250000     Biso  1.000000 C
   C6         1.0     0.250000      0.532960      0.250000     Biso  1.000000 C
   C1         1.0     0.250000      0.834540      0.250000     Biso  1.000000 C
   C2         1.0     0.250000      0.866650      0.250000     Biso  1.000000 C
   C5         1.0     0.250000      0.931560      0.250000     Biso  1.000000 C
   C6         1.0     0.250000      0.967040      0.250000     Biso  1.000000 C
   C7         1.0     0.250000      0.983650      0.278200     Biso  1.000000 C
   C7         1.0     0.250000      0.983650      0.221800     Biso  1.000000 C
   Zn1        1.0     0.224010      0.724000      0.276010     Biso  1.000000 Zn
   O2         1.0     0.232900      0.732890      0.319000     Biso  1.000000 O
   C3         1.0     0.230060      0.730050      0.382540     Biso  1.000000 C
   C4         1.0     0.230100      0.730100      0.415050     Biso  1.000000 C
   Zn1        1.0     0.276010      0.776000      0.276010     Biso  1.000000 Zn
   O2         1.0     0.267100      0.767090      0.319000     Biso  1.000000 O
   C3         1.0     0.269960      0.769950      0.382540     Biso  1.000000 C
   C4         1.0     0.269890      0.769910      0.415050     Biso  1.000000 C
   Zn1        1.0     0.224010      0.776000      0.224010     Biso  1.000000 Zn
   O2         1.0     0.232900      0.767090      0.180990     Biso  1.000000 O
   C3         1.0     0.230060      0.769950      0.117450     Biso  1.000000 C
   C4         1.0     0.230100      0.769910      0.084950     Biso  1.000000 C
   C7         1.0     0.250000      0.778210      0.016360     Biso  1.000000 C
   Zn1        1.0     0.276010      0.724000      0.224010     Biso  1.000000 Zn
   O2         1.0     0.267100      0.732890      0.180990     Biso  1.000000 O
   C3         1.0     0.269960      0.730050      0.117450     Biso  1.000000 C
   C4         1.0     0.269890      0.730100      0.084950     Biso  1.000000 C
   C7         1.0     0.250000      0.721790      0.016360     Biso  1.000000 C
   O2         1.0     0.232900      0.681000      0.267100     Biso  1.000000 O
   C3         1.0     0.230060      0.617440      0.269960     Biso  1.000000 C
   C4         1.0     0.230100      0.584960      0.269890     Biso  1.000000 C
   C7         1.0     0.221800      0.516350      0.250000     Biso  1.000000 C
   O2         1.0     0.267100      0.681000      0.232900     Biso  1.000000 O
   C3         1.0     0.269960      0.617440      0.230060     Biso  1.000000 C
   C4         1.0     0.269890      0.584960      0.230100     Biso  1.000000 C
   C7         1.0     0.278200      0.516350      0.250000     Biso  1.000000 C
   O2         1.0     0.267100      0.819000      0.267100     Biso  1.000000 O
   C3         1.0     0.269960      0.882560      0.269960     Biso  1.000000 C
   C4         1.0     0.269890      0.915040      0.269890     Biso  1.000000 C
   O2         1.0     0.232900      0.819000      0.232900     Biso  1.000000 O
   C3         1.0     0.230060      0.882560      0.230060     Biso  1.000000 C
   C4         1.0     0.230100      0.915040      0.230100     Biso  1.000000 C
   O2         1.0     0.180990      0.732890      0.267100     Biso  1.000000 O
   C3         1.0     0.117450      0.730050      0.269960     Biso  1.000000 C
   C4         1.0     0.084950      0.730100      0.269890     Biso  1.000000 C
   O2         1.0     0.180990      0.767090      0.232900     Biso  1.000000 O
   C3         1.0     0.117450      0.769950      0.230060     Biso  1.000000 C
   C4         1.0     0.084950      0.769910      0.230100     Biso  1.000000 C
   O2         1.0     0.319000      0.732890      0.232900     Biso  1.000000 O
   C3         1.0     0.382540      0.730050      0.230060     Biso  1.000000 C
   C4         1.0     0.415050      0.730100      0.230100     Biso  1.000000 C
   C7         1.0     0.483660      0.750000      0.221800     Biso  1.000000 C
   O2         1.0     0.319000      0.767090      0.267100     Biso  1.000000 O
   C3         1.0     0.382540      0.769950      0.269960     Biso  1.000000 C
   C4         1.0     0.415050      0.769910      0.269890     Biso  1.000000 C
   C7         1.0     0.483660      0.750000      0.278200     Biso  1.000000 C
   Zn1        1.0     0.224010      0.724000      0.724000     Biso  1.000000 Zn
   O1         1.0     0.250000      0.750000      0.750000     Biso  1.000000 O
   O2         1.0     0.232900      0.732890      0.681000     Biso  1.000000 O
   C1         1.0     0.250000      0.750000      0.665440     Biso  1.000000 C
   C2         1.0     0.250000      0.750000      0.633360     Biso  1.000000 C
   C3         1.0     0.230060      0.730050      0.617440     Biso  1.000000 C
   C4         1.0     0.230100      0.730100      0.584960     Biso  1.000000 C
   C5         1.0     0.250000      0.750000      0.568440     Biso  1.000000 C
   C6         1.0     0.250000      0.750000      0.532960     Biso  1.000000 C
   C7         1.0     0.221800      0.750000      0.516350     Biso  1.000000 C
   Zn1        1.0     0.276010      0.776000      0.724000     Biso  1.000000 Zn
   O2         1.0     0.267100      0.767090      0.681000     Biso  1.000000 O
   C3         1.0     0.269960      0.769950      0.617440     Biso  1.000000 C
   C4         1.0     0.269890      0.769910      0.584960     Biso  1.000000 C
   C7         1.0     0.278200      0.750000      0.516350     Biso  1.000000 C
   Zn1        1.0     0.276010      0.724000      0.776000     Biso  1.000000 Zn
   O2         1.0     0.267100      0.732890      0.819000     Biso  1.000000 O
   C1         1.0     0.250000      0.750000      0.834540     Biso  1.000000 C
   C2         1.0     0.250000      0.750000      0.866650     Biso  1.000000 C
   C3         1.0     0.269960      0.730050      0.882560     Biso  1.000000 C
   C4         1.0     0.269890      0.730100      0.915040     Biso  1.000000 C
   C5         1.0     0.250000      0.750000      0.931560     Biso  1.000000 C
   C6         1.0     0.250000      0.750000      0.967040     Biso  1.000000 C
   Zn1        1.0     0.224010      0.776000      0.776000     Biso  1.000000 Zn
   O2         1.0     0.232900      0.767090      0.819000     Biso  1.000000 O
   C3         1.0     0.230060      0.769950      0.882560     Biso  1.000000 C
   C4         1.0     0.230100      0.769910      0.915040     Biso  1.000000 C
   O2         1.0     0.180990      0.732890      0.732890     Biso  1.000000 O
   C1         1.0     0.165450      0.750000      0.750000     Biso  1.000000 C
   C2         1.0     0.133340      0.750000      0.750000     Biso  1.000000 C
   C3         1.0     0.117450      0.730050      0.730050     Biso  1.000000 C
   C4         1.0     0.084950      0.730100      0.730100     Biso  1.000000 C
   C5         1.0     0.068450      0.750000      0.750000     Biso  1.000000 C
   C6         1.0     0.032950      0.750000      0.750000     Biso  1.000000 C
   C7         1.0     0.016360      0.721790      0.750000     Biso  1.000000 C
   O2         1.0     0.180990      0.767090      0.767090     Biso  1.000000 O
   C3         1.0     0.117450      0.769950      0.769950     Biso  1.000000 C
   C4         1.0     0.084950      0.769910      0.769910     Biso  1.000000 C
   C7         1.0     0.016360      0.778210      0.750000     Biso  1.000000 C
   O2         1.0     0.319000      0.767090      0.732890     Biso  1.000000 O
   C1         1.0     0.334550      0.750000      0.750000     Biso  1.000000 C
   C2         1.0     0.366650      0.750000      0.750000     Biso  1.000000 C
   C3         1.0     0.382540      0.769950      0.730050     Biso  1.000000 C
   C4         1.0     0.415050      0.769910      0.730100     Biso  1.000000 C
   C5         1.0     0.431540      0.750000      0.750000     Biso  1.000000 C
   C6         1.0     0.467050      0.750000      0.750000     Biso  1.000000 C
   O2         1.0     0.319000      0.732890      0.767090     Biso  1.000000 O
   C3         1.0     0.382540      0.730050      0.769950     Biso  1.000000 C
   C4         1.0     0.415050      0.730100      0.769910     Biso  1.000000 C
   O2         1.0     0.232900      0.681000      0.732890     Biso  1.000000 O
   C1         1.0     0.250000      0.665440      0.750000     Biso  1.000000 C
   C2         1.0     0.250000      0.633360      0.750000     Biso  1.000000 C
   C3         1.0     0.230060      0.617440      0.730050     Biso  1.000000 C
   C4         1.0     0.230100      0.584960      0.730100     Biso  1.000000 C
   C5         1.0     0.250000      0.568440      0.750000     Biso  1.000000 C
   C6         1.0     0.250000      0.532960      0.750000     Biso  1.000000 C
   O2         1.0     0.267100      0.681000      0.767090     Biso  1.000000 O
   C3         1.0     0.269960      0.617440      0.769950     Biso  1.000000 C
   C4         1.0     0.269890      0.584960      0.769910     Biso  1.000000 C
   O2         1.0     0.232900      0.819000      0.767090     Biso  1.000000 O
   C1         1.0     0.250000      0.834540      0.750000     Biso  1.000000 C
   C2         1.0     0.250000      0.866650      0.750000     Biso  1.000000 C
   C3         1.0     0.230060      0.882560      0.769950     Biso  1.000000 C
   C4         1.0     0.230100      0.915040      0.769910     Biso  1.000000 C
   C5         1.0     0.250000      0.931560      0.750000     Biso  1.000000 C
   C6         1.0     0.250000      0.967040      0.750000     Biso  1.000000 C
   C7         1.0     0.250000      0.983650      0.778210     Biso  1.000000 C
   O2         1.0     0.267100      0.819000      0.732890     Biso  1.000000 O
   C3         1.0     0.269960      0.882560      0.730050     Biso  1.000000 C
   C4         1.0     0.269890      0.915040      0.730100     Biso  1.000000 C
   C7         1.0     0.250000      0.983650      0.721790     Biso  1.000000 C
   C7         1.0     0.250000      0.721790      0.983650     Biso  1.000000 C
   C7         1.0     0.250000      0.778210      0.983650     Biso  1.000000 C
   C7         1.0     0.221800      0.516350      0.750000     Biso  1.000000 C
   C7         1.0     0.278200      0.516350      0.750000     Biso  1.000000 C
   C7         1.0     0.483660      0.750000      0.721790     Biso  1.000000 C
   C7         1.0     0.483660      0.750000      0.778210     Biso  1.000000 C
   O1         1.0     0.750000      0.250000      0.250000     Biso  1.000000 O
   C1         1.0     0.750000      0.250000      0.165450     Biso  1.000000 C
   C2         1.0     0.750000      0.250000      0.133340     Biso  1.000000 C
   C5         1.0     0.750000      0.250000      0.068450     Biso  1.000000 C
   C6         1.0     0.750000      0.250000      0.032950     Biso  1.000000 C
   C1         1.0     0.750000      0.250000      0.334550     Biso  1.000000 C
   C2         1.0     0.750000      0.250000      0.366650     Biso  1.000000 C
   C5         1.0     0.750000      0.250000      0.431540     Biso  1.000000 C
   C6         1.0     0.750000      0.250000      0.467050     Biso  1.000000 C
   C7         1.0     0.778210      0.250000      0.483660     Biso  1.000000 C
   C7         1.0     0.721790      0.250000      0.483660     Biso  1.000000 C
   C1         1.0     0.665440      0.250000      0.250000     Biso  1.000000 C
   C2         1.0     0.633360      0.250000      0.250000     Biso  1.000000 C
   C5         1.0     0.568440      0.250000      0.250000     Biso  1.000000 C
   C6         1.0     0.532960      0.250000      0.250000     Biso  1.000000 C
   C1         1.0     0.834540      0.250000      0.250000     Biso  1.000000 C
   C2         1.0     0.866650      0.250000      0.250000     Biso  1.000000 C
   C5         1.0     0.931560      0.250000      0.250000     Biso  1.000000 C
   C6         1.0     0.967040      0.250000      0.250000     Biso  1.000000 C
   C7         1.0     0.983650      0.278200      0.250000     Biso  1.000000 C
   C7         1.0     0.983650      0.221800      0.250000     Biso  1.000000 C
   C1         1.0     0.750000      0.165450      0.250000     Biso  1.000000 C
   C2         1.0     0.750000      0.133340      0.250000     Biso  1.000000 C
   C5         1.0     0.750000      0.068450      0.250000     Biso  1.000000 C
   C6         1.0     0.750000      0.032950      0.250000     Biso  1.000000 C
   C7         1.0     0.750000      0.016360      0.221800     Biso  1.000000 C
   C7         1.0     0.750000      0.016360      0.278200     Biso  1.000000 C
   C1         1.0     0.750000      0.334550      0.250000     Biso  1.000000 C
   C2         1.0     0.750000      0.366650      0.250000     Biso  1.000000 C
   C5         1.0     0.750000      0.431540      0.250000     Biso  1.000000 C
   C6         1.0     0.750000      0.467050      0.250000     Biso  1.000000 C
   Zn1        1.0     0.724000      0.224010      0.276010     Biso  1.000000 Zn
   O2         1.0     0.732890      0.232900      0.319000     Biso  1.000000 O
   C3         1.0     0.730050      0.230060      0.382540     Biso  1.000000 C
   C4         1.0     0.730100      0.230100      0.415050     Biso  1.000000 C
   Zn1        1.0     0.776000      0.276010      0.276010     Biso  1.000000 Zn
   O2         1.0     0.767090      0.267100      0.319000     Biso  1.000000 O
   C3         1.0     0.769950      0.269960      0.382540     Biso  1.000000 C
   C4         1.0     0.769910      0.269890      0.415050     Biso  1.000000 C
   Zn1        1.0     0.724000      0.276010      0.224010     Biso  1.000000 Zn
   O2         1.0     0.732890      0.267100      0.180990     Biso  1.000000 O
   C3         1.0     0.730050      0.269960      0.117450     Biso  1.000000 C
   C4         1.0     0.730100      0.269890      0.084950     Biso  1.000000 C
   C7         1.0     0.750000      0.278200      0.016360     Biso  1.000000 C
   Zn1        1.0     0.776000      0.224010      0.224010     Biso  1.000000 Zn
   O2         1.0     0.767090      0.232900      0.180990     Biso  1.000000 O
   C3         1.0     0.769950      0.230060      0.117450     Biso  1.000000 C
   C4         1.0     0.769910      0.230100      0.084950     Biso  1.000000 C
   C7         1.0     0.750000      0.221800      0.016360     Biso  1.000000 C
   O2         1.0     0.732890      0.180990      0.267100     Biso  1.000000 O
   C3         1.0     0.730050      0.117450      0.269960     Biso  1.000000 C
   C4         1.0     0.730100      0.084950      0.269890     Biso  1.000000 C
   O2         1.0     0.767090      0.180990      0.232900     Biso  1.000000 O
   C3         1.0     0.769950      0.117450      0.230060     Biso  1.000000 C
   C4         1.0     0.769910      0.084950      0.230100     Biso  1.000000 C
   O2         1.0     0.767090      0.319000      0.267100     Biso  1.000000 O
   C3         1.0     0.769950      0.382540      0.269960     Biso  1.000000 C
   C4         1.0     0.769910      0.415050      0.269890     Biso  1.000000 C
   C7         1.0     0.778210      0.483660      0.250000     Biso  1.000000 C
   O2         1.0     0.732890      0.319000      0.232900     Biso  1.000000 O
   C3         1.0     0.730050      0.382540      0.230060     Biso  1.000000 C
   C4         1.0     0.730100      0.415050      0.230100     Biso  1.000000 C
   C7         1.0     0.721790      0.483660      0.250000     Biso  1.000000 C
   O2         1.0     0.681000      0.232900      0.267100     Biso  1.000000 O
   C3         1.0     0.617440      0.230060      0.269960     Biso  1.000000 C
   C4         1.0     0.584960      0.230100      0.269890     Biso  1.000000 C
   C7         1.0     0.516350      0.250000      0.278200     Biso  1.000000 C
   O2         1.0     0.681000      0.267100      0.232900     Biso  1.000000 O
   C3         1.0     0.617440      0.269960      0.230060     Biso  1.000000 C
   C4         1.0     0.584960      0.269890      0.230100     Biso  1.000000 C
   C7         1.0     0.516350      0.250000      0.221800     Biso  1.000000 C
   O2         1.0     0.819000      0.232900      0.232900     Biso  1.000000 O
   C3         1.0     0.882560      0.230060      0.230060     Biso  1.000000 C
   C4         1.0     0.915040      0.230100      0.230100     Biso  1.000000 C
   O2         1.0     0.819000      0.267100      0.267100     Biso  1.000000 O
   C3         1.0     0.882560      0.269960      0.269960     Biso  1.000000 C
   C4         1.0     0.915040      0.269890      0.269890     Biso  1.000000 C
   Zn1        1.0     0.724000      0.224010      0.724000     Biso  1.000000 Zn
   O1         1.0     0.750000      0.250000      0.750000     Biso  1.000000 O
   O2         1.0     0.732890      0.232900      0.681000     Biso  1.000000 O
   C1         1.0     0.750000      0.250000      0.665440     Biso  1.000000 C
   C2         1.0     0.750000      0.250000      0.633360     Biso  1.000000 C
   C3         1.0     0.730050      0.230060      0.617440     Biso  1.000000 C
   C4         1.0     0.730100      0.230100      0.584960     Biso  1.000000 C
   C5         1.0     0.750000      0.250000      0.568440     Biso  1.000000 C
   C6         1.0     0.750000      0.250000      0.532960     Biso  1.000000 C
   C7         1.0     0.721790      0.250000      0.516350     Biso  1.000000 C
   Zn1        1.0     0.776000      0.276010      0.724000     Biso  1.000000 Zn
   O2         1.0     0.767090      0.267100      0.681000     Biso  1.000000 O
   C3         1.0     0.769950      0.269960      0.617440     Biso  1.000000 C
   C4         1.0     0.769910      0.269890      0.584960     Biso  1.000000 C
   C7         1.0     0.778210      0.250000      0.516350     Biso  1.000000 C
   Zn1        1.0     0.776000      0.224010      0.776000     Biso  1.000000 Zn
   O2         1.0     0.767090      0.232900      0.819000     Biso  1.000000 O
   C1         1.0     0.750000      0.250000      0.834540     Biso  1.000000 C
   C2         1.0     0.750000      0.250000      0.866650     Biso  1.000000 C
   C3         1.0     0.769950      0.230060      0.882560     Biso  1.000000 C
   C4         1.0     0.769910      0.230100      0.915040     Biso  1.000000 C
   C5         1.0     0.750000      0.250000      0.931560     Biso  1.000000 C
   C6         1.0     0.750000      0.250000      0.967040     Biso  1.000000 C
   Zn1        1.0     0.724000      0.276010      0.776000     Biso  1.000000 Zn
   O2         1.0     0.732890      0.267100      0.819000     Biso  1.000000 O
   C3         1.0     0.730050      0.269960      0.882560     Biso  1.000000 C
   C4         1.0     0.730100      0.269890      0.915040     Biso  1.000000 C
   O2         1.0     0.681000      0.232900      0.732890     Biso  1.000000 O
   C1         1.0     0.665440      0.250000      0.750000     Biso  1.000000 C
   C2         1.0     0.633360      0.250000      0.750000     Biso  1.000000 C
   C3         1.0     0.617440      0.230060      0.730050     Biso  1.000000 C
   C4         1.0     0.584960      0.230100      0.730100     Biso  1.000000 C
   C5         1.0     0.568440      0.250000      0.750000     Biso  1.000000 C
   C6         1.0     0.532960      0.250000      0.750000     Biso  1.000000 C
   O2         1.0     0.681000      0.267100      0.767090     Biso  1.000000 O
   C3         1.0     0.617440      0.269960      0.769950     Biso  1.000000 C
   C4         1.0     0.584960      0.269890      0.769910     Biso  1.000000 C
   O2         1.0     0.819000      0.267100      0.732890     Biso  1.000000 O
   C1         1.0     0.834540      0.250000      0.750000     Biso  1.000000 C
   C2         1.0     0.866650      0.250000      0.750000     Biso  1.000000 C
   C3         1.0     0.882560      0.269960      0.730050     Biso  1.000000 C
   C4         1.0     0.915040      0.269890      0.730100     Biso  1.000000 C
   C5         1.0     0.931560      0.250000      0.750000     Biso  1.000000 C
   C6         1.0     0.967040      0.250000      0.750000     Biso  1.000000 C
   C7         1.0     0.983650      0.278200      0.750000     Biso  1.000000 C
   O2         1.0     0.819000      0.232900      0.767090     Biso  1.000000 O
   C3         1.0     0.882560      0.230060      0.769950     Biso  1.000000 C
   C4         1.0     0.915040      0.230100      0.769910     Biso  1.000000 C
   C7         1.0     0.983650      0.221800      0.750000     Biso  1.000000 C
   O2         1.0     0.732890      0.180990      0.732890     Biso  1.000000 O
   C1         1.0     0.750000      0.165450      0.750000     Biso  1.000000 C
   C2         1.0     0.750000      0.133340      0.750000     Biso  1.000000 C
   C3         1.0     0.730050      0.117450      0.730050     Biso  1.000000 C
   C4         1.0     0.730100      0.084950      0.730100     Biso  1.000000 C
   C5         1.0     0.750000      0.068450      0.750000     Biso  1.000000 C
   C6         1.0     0.750000      0.032950      0.750000     Biso  1.000000 C
   C7         1.0     0.750000      0.016360      0.721790     Biso  1.000000 C
   O2         1.0     0.767090      0.180990      0.767090     Biso  1.000000 O
   C3         1.0     0.769950      0.117450      0.769950     Biso  1.000000 C
   C4         1.0     0.769910      0.084950      0.769910     Biso  1.000000 C
   C7         1.0     0.750000      0.016360      0.778210     Biso  1.000000 C
   O2         1.0     0.732890      0.319000      0.767090     Biso  1.000000 O
   C1         1.0     0.750000      0.334550      0.750000     Biso  1.000000 C
   C2         1.0     0.750000      0.366650      0.750000     Biso  1.000000 C
   C3         1.0     0.730050      0.382540      0.769950     Biso  1.000000 C
   C4         1.0     0.730100      0.415050      0.769910     Biso  1.000000 C
   C5         1.0     0.750000      0.431540      0.750000     Biso  1.000000 C
   C6         1.0     0.750000      0.467050      0.750000     Biso  1.000000 C
   O2         1.0     0.767090      0.319000      0.732890     Biso  1.000000 O
   C3         1.0     0.769950      0.382540      0.730050     Biso  1.000000 C
   C4         1.0     0.769910      0.415050      0.730100     Biso  1.000000 C
   C7         1.0     0.750000      0.221800      0.983650     Biso  1.000000 C
   C7         1.0     0.750000      0.278200      0.983650     Biso  1.000000 C
   C7         1.0     0.778210      0.483660      0.750000     Biso  1.000000 C
   C7         1.0     0.721790      0.483660      0.750000     Biso  1.000000 C
   C7         1.0     0.516350      0.250000      0.778210     Biso  1.000000 C
   C7         1.0     0.516350      0.250000      0.721790     Biso  1.000000 C
   Zn1        1.0     0.724000      0.724000      0.224010     Biso  1.000000 Zn
   O1         1.0     0.750000      0.750000      0.250000     Biso  1.000000 O
   O2         1.0     0.732890      0.732890      0.180990     Biso  1.000000 O
   C1         1.0     0.750000      0.750000      0.165450     Biso  1.000000 C
   C2         1.0     0.750000      0.750000      0.133340     Biso  1.000000 C
   C3         1.0     0.730050      0.730050      0.117450     Biso  1.000000 C
   C4         1.0     0.730100      0.730100      0.084950     Biso  1.000000 C
   C5         1.0     0.750000      0.750000      0.068450     Biso  1.000000 C
   C6         1.0     0.750000      0.750000      0.032950     Biso  1.000000 C
   Zn1        1.0     0.776000      0.776000      0.224010     Biso  1.000000 Zn
   O2         1.0     0.767090      0.767090      0.180990     Biso  1.000000 O
   C3         1.0     0.769950      0.769950      0.117450     Biso  1.000000 C
   C4         1.0     0.769910      0.769910      0.084950     Biso  1.000000 C
   Zn1        1.0     0.776000      0.724000      0.276010     Biso  1.000000 Zn
   O2         1.0     0.767090      0.732890      0.319000     Biso  1.000000 O
   C1         1.0     0.750000      0.750000      0.334550     Biso  1.000000 C
   C2         1.0     0.750000      0.750000      0.366650     Biso  1.000000 C
   C3         1.0     0.769950      0.730050      0.382540     Biso  1.000000 C
   C4         1.0     0.769910      0.730100      0.415050     Biso  1.000000 C
   C5         1.0     0.750000      0.750000      0.431540     Biso  1.000000 C
   C6         1.0     0.750000      0.750000      0.467050     Biso  1.000000 C
   C7         1.0     0.778210      0.750000      0.483660     Biso  1.000000 C
   Zn1        1.0     0.724000      0.776000      0.276010     Biso  1.000000 Zn
   O2         1.0     0.732890      0.767090      0.319000     Biso  1.000000 O
   C3         1.0     0.730050      0.769950      0.382540     Biso  1.000000 C
   C4         1.0     0.730100      0.769910      0.415050     Biso  1.000000 C
   C7         1.0     0.721790      0.750000      0.483660     Biso  1.000000 C
   O2         1.0     0.681000      0.732890      0.232900     Biso  1.000000 O
   C1         1.0     0.665440      0.750000      0.250000     Biso  1.000000 C
   C2         1.0     0.633360      0.750000      0.250000     Biso  1.000000 C
   C3         1.0     0.617440      0.730050      0.230060     Biso  1.000000 C
   C4         1.0     0.584960      0.730100      0.230100     Biso  1.000000 C
   C5         1.0     0.568440      0.750000      0.250000     Biso  1.000000 C
   C6         1.0     0.532960      0.750000      0.250000     Biso  1.000000 C
   O2         1.0     0.681000      0.767090      0.267100     Biso  1.000000 O
   C3         1.0     0.617440      0.769950      0.269960     Biso  1.000000 C
   C4         1.0     0.584960      0.769910      0.269890     Biso  1.000000 C
   O2         1.0     0.819000      0.767090      0.232900     Biso  1.000000 O
   C1         1.0     0.834540      0.750000      0.250000     Biso  1.000000 C
   C2         1.0     0.866650      0.750000      0.250000     Biso  1.000000 C
   C3         1.0     0.882560      0.769950      0.230060     Biso  1.000000 C
   C4         1.0     0.915040      0.769910      0.230100     Biso  1.000000 C
   C5         1.0     0.931560      0.750000      0.250000     Biso  1.000000 C
   C6         1.0     0.967040      0.750000      0.250000     Biso  1.000000 C
   C7         1.0     0.983650      0.778210      0.250000     Biso  1.000000 C
   O2         1.0     0.819000      0.732890      0.267100     Biso  1.000000 O
   C3         1.0     0.882560      0.730050      0.269960     Biso  1.000000 C
   C4         1.0     0.915040      0.730100      0.269890     Biso  1.000000 C
   C7         1.0     0.983650      0.721790      0.250000     Biso  1.000000 C
   O2         1.0     0.732890      0.681000      0.232900     Biso  1.000000 O
   C1         1.0     0.750000      0.665440      0.250000     Biso  1.000000 C
   C2         1.0     0.750000      0.633360      0.250000     Biso  1.000000 C
   C3         1.0     0.730050      0.617440      0.230060     Biso  1.000000 C
   C4         1.0     0.730100      0.584960      0.230100     Biso  1.000000 C
   C5         1.0     0.750000      0.568440      0.250000     Biso  1.000000 C
   C6         1.0     0.750000      0.532960      0.250000     Biso  1.000000 C
   O2         1.0     0.767090      0.681000      0.267100     Biso  1.000000 O
   C3         1.0     0.769950      0.617440      0.269960     Biso  1.000000 C
   C4         1.0     0.769910      0.584960      0.269890     Biso  1.000000 C
   O2         1.0     0.732890      0.819000      0.267100     Biso  1.000000 O
   C1         1.0     0.750000      0.834540      0.250000     Biso  1.000000 C
   C2         1.0     0.750000      0.866650      0.250000     Biso  1.000000 C
   C3         1.0     0.730050      0.882560      0.269960     Biso  1.000000 C
   C4         1.0     0.730100      0.915040      0.269890     Biso  1.000000 C
   C5         1.0     0.750000      0.931560      0.250000     Biso  1.000000 C
   C6         1.0     0.750000      0.967040      0.250000     Biso  1.000000 C
   C7         1.0     0.750000      0.983650      0.278200     Biso  1.000000 C
   O2         1.0     0.767090      0.819000      0.232900     Biso  1.000000 O
   C3         1.0     0.769950      0.882560      0.230060     Biso  1.000000 C
   C4         1.0     0.769910      0.915040      0.230100     Biso  1.000000 C
   C7         1.0     0.750000      0.983650      0.221800     Biso  1.000000 C
   C7         1.0     0.750000      0.778210      0.016360     Biso  1.000000 C
   C7         1.0     0.750000      0.721790      0.016360     Biso  1.000000 C
   C7         1.0     0.721790      0.516350      0.250000     Biso  1.000000 C
   C7         1.0     0.778210      0.516350      0.250000     Biso  1.000000 C
   C7         1.0     0.516350      0.750000      0.278200     Biso  1.000000 C
   C7         1.0     0.516350      0.750000      0.221800     Biso  1.000000 C
   O1         1.0     0.750000      0.750000      0.750000     Biso  1.000000 O
   C1         1.0     0.750000      0.750000      0.665440     Biso  1.000000 C
   C2         1.0     0.750000      0.750000      0.633360     Biso  1.000000 C
   C5         1.0     0.750000      0.750000      0.568440     Biso  1.000000 C
   C6         1.0     0.750000      0.750000      0.532960     Biso  1.000000 C
   C7         1.0     0.721790      0.750000      0.516350     Biso  1.000000 C
   C7         1.0     0.778210      0.750000      0.516350     Biso  1.000000 C
   C1         1.0     0.750000      0.750000      0.834540     Biso  1.000000 C
   C2         1.0     0.750000      0.750000      0.866650     Biso  1.000000 C
   C5         1.0     0.750000      0.750000      0.931560     Biso  1.000000 C
   C6         1.0     0.750000      0.750000      0.967040     Biso  1.000000 C
   C1         1.0     0.665440      0.750000      0.750000     Biso  1.000000 C
   C2         1.0     0.633360      0.750000      0.750000     Biso  1.000000 C
   C5         1.0     0.568440      0.750000      0.750000     Biso  1.000000 C
   C6         1.0     0.532960      0.750000      0.750000     Biso  1.000000 C
   C1         1.0     0.834540      0.750000      0.750000     Biso  1.000000 C
   C2         1.0     0.866650      0.750000      0.750000     Biso  1.000000 C
   C5         1.0     0.931560      0.750000      0.750000     Biso  1.000000 C
   C6         1.0     0.967040      0.750000      0.750000     Biso  1.000000 C
   C7         1.0     0.983650      0.778210      0.750000     Biso  1.000000 C
   C7         1.0     0.983650      0.721790      0.750000     Biso  1.000000 C
   C1         1.0     0.750000      0.665440      0.750000     Biso  1.000000 C
   C2         1.0     0.750000      0.633360      0.750000     Biso  1.000000 C
   C5         1.0     0.750000      0.568440      0.750000     Biso  1.000000 C
   C6         1.0     0.750000      0.532960      0.750000     Biso  1.000000 C
   C1         1.0     0.750000      0.834540      0.750000     Biso  1.000000 C
   C2         1.0     0.750000      0.866650      0.750000     Biso  1.000000 C
   C5         1.0     0.750000      0.931560      0.750000     Biso  1.000000 C
   C6         1.0     0.750000      0.967040      0.750000     Biso  1.000000 C
   C7         1.0     0.750000      0.983650      0.778210     Biso  1.000000 C
   C7         1.0     0.750000      0.983650      0.721790     Biso  1.000000 C
   Zn1        1.0     0.724000      0.724000      0.776000     Biso  1.000000 Zn
   O2         1.0     0.732890      0.732890      0.819000     Biso  1.000000 O
   C3         1.0     0.730050      0.730050      0.882560     Biso  1.000000 C
   C4         1.0     0.730100      0.730100      0.915040     Biso  1.000000 C
   C7         1.0     0.750000      0.721790      0.983650     Biso  1.000000 C
   Zn1        1.0     0.776000      0.776000      0.776000     Biso  1.000000 Zn
   O2         1.0     0.767090      0.767090      0.819000     Biso  1.000000 O
   C3         1.0     0.769950      0.769950      0.882560     Biso  1.000000 C
   C4         1.0     0.769910      0.769910      0.915040     Biso  1.000000 C
   C7         1.0     0.750000      0.778210      0.983650     Biso  1.000000 C
   Zn1        1.0     0.724000      0.776000      0.724000     Biso  1.000000 Zn
   O2         1.0     0.732890      0.767090      0.681000     Biso  1.000000 O
   C3         1.0     0.730050      0.769950      0.617440     Biso  1.000000 C
   C4         1.0     0.730100      0.769910      0.584960     Biso  1.000000 C
   Zn1        1.0     0.776000      0.724000      0.724000     Biso  1.000000 Zn
   O2         1.0     0.767090      0.732890      0.681000     Biso  1.000000 O
   C3         1.0     0.769950      0.730050      0.617440     Biso  1.000000 C
   C4         1.0     0.769910      0.730100      0.584960     Biso  1.000000 C
   O2         1.0     0.732890      0.681000      0.767090     Biso  1.000000 O
   C3         1.0     0.730050      0.617440      0.769950     Biso  1.000000 C
   C4         1.0     0.730100      0.584960      0.769910     Biso  1.000000 C
   C7         1.0     0.721790      0.516350      0.750000     Biso  1.000000 C
   O2         1.0     0.767090      0.681000      0.732890     Biso  1.000000 O
   C3         1.0     0.769950      0.617440      0.730050     Biso  1.000000 C
   C4         1.0     0.769910      0.584960      0.730100     Biso  1.000000 C
   C7         1.0     0.778210      0.516350      0.750000     Biso  1.000000 C
   O2         1.0     0.767090      0.819000      0.767090     Biso  1.000000 O
   C3         1.0     0.769950      0.882560      0.769950     Biso  1.000000 C
   C4         1.0     0.769910      0.915040      0.769910     Biso  1.000000 C
   O2         1.0     0.732890      0.819000      0.732890     Biso  1.000000 O
   C3         1.0     0.730050      0.882560      0.730050     Biso  1.000000 C
   C4         1.0     0.730100      0.915040      0.730100     Biso  1.000000 C
   O2         1.0     0.681000      0.732890      0.767090     Biso  1.000000 O
   C3         1.0     0.617440      0.730050      0.769950     Biso  1.000000 C
   C4         1.0     0.584960      0.730100      0.769910     Biso  1.000000 C
   C7         1.0     0.516350      0.750000      0.778210     Biso  1.000000 C
   O2         1.0     0.681000      0.767090      0.732890     Biso  1.000000 O
   C3         1.0     0.617440      0.769950      0.730050     Biso  1.000000 C
   C4         1.0     0.584960      0.769910      0.730100     Biso  1.000000 C
   C7         1.0     0.516350      0.750000      0.721790     Biso  1.000000 C
   O2         1.0     0.819000      0.732890      0.732890     Biso  1.000000 O
   C3         1.0     0.882560      0.730050      0.730050     Biso  1.000000 C
   C4         1.0     0.915040      0.730100      0.730100     Biso  1.000000 C
   O2         1.0     0.819000      0.767090      0.767090     Biso  1.000000 O
   C3         1.0     0.882560      0.769950      0.769950     Biso  1.000000 C
   C4         1.0     0.915040      0.769910      0.769910     Biso  1.000000 C
   H1         1.0     0.216600      0.216600      0.128700     Biso  1.000000 H
   H2         1.0     0.216580      0.216580      0.073860     Biso  1.000000 H
   H1         1.0     0.283410      0.283410      0.128710     Biso  1.000000 H
   H2         1.0     0.283480      0.283480      0.074020     Biso  1.000000 H
   H1         1.0     0.283430      0.216620      0.371290     Biso  1.000000 H
   H2         1.0     0.283400      0.216580      0.426150     Biso  1.000000 H
   H3         1.0     0.297440      0.250000      0.472770     Biso  1.000000 H
   H1         1.0     0.216620      0.283430      0.371290     Biso  1.000000 H
   H2         1.0     0.216500      0.283470      0.425970     Biso  1.000000 H
   H3         1.0     0.202560      0.250000      0.472780     Biso  1.000000 H
   H1         1.0     0.128700      0.216600      0.216600     Biso  1.000000 H
   H2         1.0     0.073860      0.216580      0.216580     Biso  1.000000 H
   H3         1.0     0.027250      0.202570      0.250000     Biso  1.000000 H
   H1         1.0     0.128710      0.283410      0.283410     Biso  1.000000 H
   H2         1.0     0.074020      0.283480      0.283480     Biso  1.000000 H
   H3         1.0     0.027250      0.297430      0.250000     Biso  1.000000 H
   H1         1.0     0.371290      0.283430      0.216620     Biso  1.000000 H
   H2         1.0     0.426150      0.283400      0.216580     Biso  1.000000 H
   H1         1.0     0.371290      0.216620      0.283430     Biso  1.000000 H
   H2         1.0     0.425970      0.216500      0.283470     Biso  1.000000 H
   H1         1.0     0.216600      0.128700      0.216600     Biso  1.000000 H
   H2         1.0     0.216580      0.073860      0.216580     Biso  1.000000 H
   H3         1.0     0.250000      0.027250      0.202570     Biso  1.000000 H
   H1         1.0     0.283410      0.128710      0.283410     Biso  1.000000 H
   H2         1.0     0.283480      0.074020      0.283480     Biso  1.000000 H
   H3         1.0     0.250000      0.027250      0.297430     Biso  1.000000 H
   H1         1.0     0.216620      0.371290      0.283430     Biso  1.000000 H
   H2         1.0     0.216580      0.426150      0.283400     Biso  1.000000 H
   H1         1.0     0.283430      0.371290      0.216620     Biso  1.000000 H
   H2         1.0     0.283470      0.425970      0.216500     Biso  1.000000 H
   H3         1.0     0.250000      0.297430      0.027250     Biso  1.000000 H
   H3         1.0     0.250000      0.202570      0.027250     Biso  1.000000 H
   H3         1.0     0.297440      0.472770      0.250000     Biso  1.000000 H
   H3         1.0     0.202560      0.472780      0.250000     Biso  1.000000 H
   H3         1.0     0.472780      0.250000      0.202560     Biso  1.000000 H
   H3         1.0     0.472770      0.250000      0.297440     Biso  1.000000 H
   H3         1.0     0.202660      0.250000      0.527400     Biso  1.000000 H
   H3         1.0     0.297340      0.250000      0.527400     Biso  1.000000 H
   H3         1.0     0.027250      0.202570      0.750000     Biso  1.000000 H
   H3         1.0     0.027250      0.297430      0.750000     Biso  1.000000 H
   H3         1.0     0.250000      0.027250      0.702560     Biso  1.000000 H
   H3         1.0     0.250000      0.027260      0.797440     Biso  1.000000 H
   H1         1.0     0.216600      0.216600      0.871320     Biso  1.000000 H
   H2         1.0     0.216510      0.216510      0.925950     Biso  1.000000 H
   H3         1.0     0.250000      0.202560      0.972770     Biso  1.000000 H
   H1         1.0     0.283410      0.283410      0.871310     Biso  1.000000 H
   H2         1.0     0.283480      0.283480      0.925950     Biso  1.000000 H
   H3         1.0     0.250000      0.297440      0.972760     Biso  1.000000 H
   H1         1.0     0.216620      0.283430      0.628680     Biso  1.000000 H
   H2         1.0     0.216510      0.283480      0.574050     Biso  1.000000 H
   H1         1.0     0.283440      0.216630      0.628690     Biso  1.000000 H
   H2         1.0     0.283480      0.216510      0.574050     Biso  1.000000 H
   H1         1.0     0.216620      0.128700      0.783410     Biso  1.000000 H
   H2         1.0     0.216530      0.074020      0.783500     Biso  1.000000 H
   H1         1.0     0.283430      0.128700      0.716610     Biso  1.000000 H
   H2         1.0     0.283470      0.074030      0.716500     Biso  1.000000 H
   H1         1.0     0.283420      0.371280      0.783390     Biso  1.000000 H
   H2         1.0     0.283460      0.425980      0.783510     Biso  1.000000 H
   H3         1.0     0.297440      0.472770      0.750000     Biso  1.000000 H
   H1         1.0     0.216600      0.371290      0.716600     Biso  1.000000 H
   H2         1.0     0.216510      0.425970      0.716510     Biso  1.000000 H
   H3         1.0     0.202560      0.472780      0.750000     Biso  1.000000 H
   H1         1.0     0.128700      0.216620      0.783410     Biso  1.000000 H
   H2         1.0     0.074020      0.216530      0.783500     Biso  1.000000 H
   H1         1.0     0.128700      0.283430      0.716610     Biso  1.000000 H
   H2         1.0     0.074030      0.283470      0.716500     Biso  1.000000 H
   H1         1.0     0.371290      0.216600      0.716600     Biso  1.000000 H
   H2         1.0     0.425970      0.216510      0.716510     Biso  1.000000 H
   H3         1.0     0.472770      0.250000      0.702550     Biso  1.000000 H
   H1         1.0     0.371280      0.283420      0.783390     Biso  1.000000 H
   H2         1.0     0.425980      0.283460      0.783510     Biso  1.000000 H
   H3         1.0     0.472770      0.250000      0.797440     Biso  1.000000 H
   H3         1.0     0.297440      0.750000      0.472770     Biso  1.000000 H
   H3         1.0     0.202560      0.750000      0.472780     Biso  1.000000 H
   H3         1.0     0.027250      0.702560      0.250000     Biso  1.000000 H
   H3         1.0     0.027260      0.797440      0.250000     Biso  1.000000 H
   H3         1.0     0.250000      0.972760      0.297440     Biso  1.000000 H
   H3         1.0     0.250000      0.972770      0.202560     Biso  1.000000 H
   H1         1.0     0.216600      0.716600      0.371290     Biso  1.000000 H
   H2         1.0     0.216510      0.716510      0.425970     Biso  1.000000 H
   H1         1.0     0.283420      0.783390      0.371280     Biso  1.000000 H
   H2         1.0     0.283460      0.783510      0.425980     Biso  1.000000 H
   H1         1.0     0.216620      0.783410      0.128700     Biso  1.000000 H
   H2         1.0     0.216530      0.783500      0.074020     Biso  1.000000 H
   H3         1.0     0.250000      0.797440      0.027260     Biso  1.000000 H
   H1         1.0     0.283430      0.716610      0.128700     Biso  1.000000 H
   H2         1.0     0.283470      0.716500      0.074030     Biso  1.000000 H
   H3         1.0     0.250000      0.702560      0.027250     Biso  1.000000 H
   H1         1.0     0.216620      0.628680      0.283430     Biso  1.000000 H
   H2         1.0     0.216500      0.574050      0.283470     Biso  1.000000 H
   H3         1.0     0.202660      0.527400      0.250000     Biso  1.000000 H
   H1         1.0     0.283430      0.628680      0.216620     Biso  1.000000 H
   H2         1.0     0.283470      0.574050      0.216500     Biso  1.000000 H
   H3         1.0     0.297340      0.527400      0.250000     Biso  1.000000 H
   H1         1.0     0.283410      0.871310      0.283410     Biso  1.000000 H
   H2         1.0     0.283480      0.925950      0.283480     Biso  1.000000 H
   H1         1.0     0.216600      0.871320      0.216600     Biso  1.000000 H
   H2         1.0     0.216510      0.925950      0.216510     Biso  1.000000 H
   H1         1.0     0.128700      0.716610      0.283430     Biso  1.000000 H
   H2         1.0     0.074030      0.716500      0.283470     Biso  1.000000 H
   H1         1.0     0.128700      0.783410      0.216620     Biso  1.000000 H
   H2         1.0     0.074020      0.783500      0.216530     Biso  1.000000 H
   H1         1.0     0.371290      0.716600      0.216600     Biso  1.000000 H
   H2         1.0     0.425970      0.716510      0.216510     Biso  1.000000 H
   H3         1.0     0.472780      0.750000      0.202560     Biso  1.000000 H
   H1         1.0     0.371280      0.783390      0.283420     Biso  1.000000 H
   H2         1.0     0.425980      0.783510      0.283460     Biso  1.000000 H
   H3         1.0     0.472770      0.750000      0.297440     Biso  1.000000 H
   H1         1.0     0.216600      0.716590      0.628680     Biso  1.000000 H
   H2         1.0     0.216580      0.716580      0.573870     Biso  1.000000 H
   H3         1.0     0.202660      0.750000      0.527400     Biso  1.000000 H
   H1         1.0     0.283420      0.783400      0.628690     Biso  1.000000 H
   H2         1.0     0.283470      0.783510      0.574040     Biso  1.000000 H
   H3         1.0     0.297340      0.750000      0.527400     Biso  1.000000 H
   H1         1.0     0.283430      0.716610      0.871320     Biso  1.000000 H
   H2         1.0     0.283400      0.716580      0.926140     Biso  1.000000 H
   H1         1.0     0.216610      0.783420      0.871320     Biso  1.000000 H
   H2         1.0     0.216510      0.783500      0.925960     Biso  1.000000 H
   H1         1.0     0.128700      0.716600      0.716600     Biso  1.000000 H
   H2         1.0     0.073860      0.716580      0.716580     Biso  1.000000 H
   H3         1.0     0.027250      0.702560      0.750000     Biso  1.000000 H
   H1         1.0     0.128710      0.783400      0.783400     Biso  1.000000 H
   H2         1.0     0.074020      0.783490      0.783490     Biso  1.000000 H
   H3         1.0     0.027260      0.797440      0.750000     Biso  1.000000 H
   H1         1.0     0.371290      0.783410      0.716610     Biso  1.000000 H
   H2         1.0     0.426140      0.783430      0.716580     Biso  1.000000 H
   H1         1.0     0.371290      0.716610      0.783410     Biso  1.000000 H
   H2         1.0     0.425970      0.716520      0.783500     Biso  1.000000 H
   H1         1.0     0.216600      0.628680      0.716590     Biso  1.000000 H
   H2         1.0     0.216580      0.573870      0.716580     Biso  1.000000 H
   H1         1.0     0.283420      0.628690      0.783400     Biso  1.000000 H
   H2         1.0     0.283470      0.574040      0.783510     Biso  1.000000 H
   H1         1.0     0.216610      0.871320      0.783420     Biso  1.000000 H
   H2         1.0     0.216590      0.926130      0.783440     Biso  1.000000 H
   H3         1.0     0.250000      0.972760      0.797450     Biso  1.000000 H
   H1         1.0     0.283430      0.871320      0.716610     Biso  1.000000 H
   H2         1.0     0.283470      0.925950      0.716500     Biso  1.000000 H
   H3         1.0     0.250000      0.972760      0.702550     Biso  1.000000 H
   H3         1.0     0.250000      0.702550      0.972760     Biso  1.000000 H
   H3         1.0     0.250000      0.797450      0.972760     Biso  1.000000 H
   H3         1.0     0.202660      0.527400      0.750000     Biso  1.000000 H
   H3         1.0     0.297340      0.527400      0.750000     Biso  1.000000 H
   H3         1.0     0.472770      0.750000      0.702550     Biso  1.000000 H
   H3         1.0     0.472770      0.750000      0.797440     Biso  1.000000 H
   H3         1.0     0.797440      0.250000      0.472770     Biso  1.000000 H
   H3         1.0     0.702550      0.250000      0.472770     Biso  1.000000 H
   H3         1.0     0.972760      0.297440      0.250000     Biso  1.000000 H
   H3         1.0     0.972770      0.202560      0.250000     Biso  1.000000 H
   H3         1.0     0.750000      0.027250      0.202570     Biso  1.000000 H
   H3         1.0     0.750000      0.027250      0.297430     Biso  1.000000 H
   H1         1.0     0.716600      0.216600      0.371290     Biso  1.000000 H
   H2         1.0     0.716510      0.216510      0.425970     Biso  1.000000 H
   H1         1.0     0.783390      0.283420      0.371280     Biso  1.000000 H
   H2         1.0     0.783510      0.283460      0.425980     Biso  1.000000 H
   H1         1.0     0.716610      0.283430      0.128700     Biso  1.000000 H
   H2         1.0     0.716500      0.283470      0.074030     Biso  1.000000 H
   H3         1.0     0.750000      0.297430      0.027250     Biso  1.000000 H
   H1         1.0     0.783410      0.216620      0.128700     Biso  1.000000 H
   H2         1.0     0.783500      0.216530      0.074020     Biso  1.000000 H
   H3         1.0     0.750000      0.202570      0.027250     Biso  1.000000 H
   H1         1.0     0.716610      0.128700      0.283430     Biso  1.000000 H
   H2         1.0     0.716500      0.074030      0.283470     Biso  1.000000 H
   H1         1.0     0.783410      0.128700      0.216620     Biso  1.000000 H
   H2         1.0     0.783500      0.074020      0.216530     Biso  1.000000 H
   H1         1.0     0.783390      0.371280      0.283420     Biso  1.000000 H
   H2         1.0     0.783510      0.425980      0.283460     Biso  1.000000 H
   H3         1.0     0.797440      0.472770      0.250000     Biso  1.000000 H
   H1         1.0     0.716600      0.371290      0.216600     Biso  1.000000 H
   H2         1.0     0.716510      0.425970      0.216510     Biso  1.000000 H
   H3         1.0     0.702550      0.472770      0.250000     Biso  1.000000 H
   H1         1.0     0.628680      0.216620      0.283430     Biso  1.000000 H
   H2         1.0     0.574050      0.216500      0.283470     Biso  1.000000 H
   H3         1.0     0.527400      0.250000      0.297340     Biso  1.000000 H
   H1         1.0     0.628680      0.283430      0.216620     Biso  1.000000 H
   H2         1.0     0.574050      0.283470      0.216500     Biso  1.000000 H
   H3         1.0     0.527400      0.250000      0.202660     Biso  1.000000 H
   H1         1.0     0.871320      0.216600      0.216600     Biso  1.000000 H
   H2         1.0     0.925950      0.216510      0.216510     Biso  1.000000 H
   H1         1.0     0.871310      0.283410      0.283410     Biso  1.000000 H
   H2         1.0     0.925950      0.283480      0.283480     Biso  1.000000 H
   H1         1.0     0.716590      0.216600      0.628680     Biso  1.000000 H
   H2         1.0     0.716580      0.216580      0.573870     Biso  1.000000 H
   H3         1.0     0.702650      0.250000      0.527400     Biso  1.000000 H
   H1         1.0     0.783400      0.283420      0.628690     Biso  1.000000 H
   H2         1.0     0.783510      0.283470      0.574040     Biso  1.000000 H
   H3         1.0     0.797350      0.250000      0.527400     Biso  1.000000 H
   H1         1.0     0.783420      0.216610      0.871320     Biso  1.000000 H
   H2         1.0     0.783440      0.216590      0.926130     Biso  1.000000 H
   H1         1.0     0.716610      0.283430      0.871320     Biso  1.000000 H
   H2         1.0     0.716500      0.283470      0.925950     Biso  1.000000 H
   H1         1.0     0.628680      0.216600      0.716590     Biso  1.000000 H
   H2         1.0     0.573870      0.216580      0.716580     Biso  1.000000 H
   H1         1.0     0.628690      0.283420      0.783400     Biso  1.000000 H
   H2         1.0     0.574040      0.283470      0.783510     Biso  1.000000 H
   H1         1.0     0.871320      0.283430      0.716610     Biso  1.000000 H
   H2         1.0     0.926140      0.283400      0.716580     Biso  1.000000 H
   H3         1.0     0.972760      0.297440      0.750000     Biso  1.000000 H
   H1         1.0     0.871320      0.216610      0.783420     Biso  1.000000 H
   H2         1.0     0.925960      0.216510      0.783500     Biso  1.000000 H
   H3         1.0     0.972770      0.202560      0.750000     Biso  1.000000 H
   H1         1.0     0.716600      0.128700      0.716600     Biso  1.000000 H
   H2         1.0     0.716580      0.073860      0.716580     Biso  1.000000 H
   H3         1.0     0.750000      0.027250      0.702560     Biso  1.000000 H
   H1         1.0     0.783400      0.128710      0.783400     Biso  1.000000 H
   H2         1.0     0.783490      0.074020      0.783490     Biso  1.000000 H
   H3         1.0     0.750000      0.027260      0.797440     Biso  1.000000 H
   H1         1.0     0.716610      0.371290      0.783410     Biso  1.000000 H
   H2         1.0     0.716580      0.426140      0.783430     Biso  1.000000 H
   H1         1.0     0.783410      0.371290      0.716610     Biso  1.000000 H
   H2         1.0     0.783500      0.425970      0.716520     Biso  1.000000 H
   H3         1.0     0.750000      0.202560      0.972770     Biso  1.000000 H
   H3         1.0     0.750000      0.297440      0.972760     Biso  1.000000 H
   H3         1.0     0.797440      0.472770      0.750000     Biso  1.000000 H
   H3         1.0     0.702550      0.472770      0.750000     Biso  1.000000 H
   H3         1.0     0.527400      0.250000      0.797350     Biso  1.000000 H
   H3         1.0     0.527400      0.250000      0.702650     Biso  1.000000 H
   H1         1.0     0.716600      0.716600      0.128700     Biso  1.000000 H
   H2         1.0     0.716580      0.716580      0.073860     Biso  1.000000 H
   H1         1.0     0.783400      0.783400      0.128710     Biso  1.000000 H
   H2         1.0     0.783490      0.783490      0.074020     Biso  1.000000 H
   H1         1.0     0.783410      0.716610      0.371290     Biso  1.000000 H
   H2         1.0     0.783430      0.716580      0.426140     Biso  1.000000 H
   H3         1.0     0.797440      0.750000      0.472770     Biso  1.000000 H
   H1         1.0     0.716610      0.783410      0.371290     Biso  1.000000 H
   H2         1.0     0.716520      0.783500      0.425970     Biso  1.000000 H
   H3         1.0     0.702550      0.750000      0.472770     Biso  1.000000 H
   H1         1.0     0.628680      0.716590      0.216600     Biso  1.000000 H
   H2         1.0     0.573870      0.716580      0.216580     Biso  1.000000 H
   H1         1.0     0.628690      0.783400      0.283420     Biso  1.000000 H
   H2         1.0     0.574040      0.783510      0.283470     Biso  1.000000 H
   H1         1.0     0.871320      0.783420      0.216610     Biso  1.000000 H
   H2         1.0     0.926130      0.783440      0.216590     Biso  1.000000 H
   H3         1.0     0.972760      0.797450      0.250000     Biso  1.000000 H
   H1         1.0     0.871320      0.716610      0.283430     Biso  1.000000 H
   H2         1.0     0.925950      0.716500      0.283470     Biso  1.000000 H
   H3         1.0     0.972760      0.702550      0.250000     Biso  1.000000 H
   H1         1.0     0.716590      0.628680      0.216600     Biso  1.000000 H
   H2         1.0     0.716580      0.573870      0.216580     Biso  1.000000 H
   H1         1.0     0.783400      0.628690      0.283420     Biso  1.000000 H
   H2         1.0     0.783510      0.574040      0.283470     Biso  1.000000 H
   H1         1.0     0.716610      0.871320      0.283430     Biso  1.000000 H
   H2         1.0     0.716580      0.926140      0.283400     Biso  1.000000 H
   H3         1.0     0.750000      0.972760      0.297440     Biso  1.000000 H
   H1         1.0     0.783420      0.871320      0.216610     Biso  1.000000 H
   H2         1.0     0.783500      0.925960      0.216510     Biso  1.000000 H
   H3         1.0     0.750000      0.972770      0.202560     Biso  1.000000 H
   H3         1.0     0.750000      0.797440      0.027260     Biso  1.000000 H
   H3         1.0     0.750000      0.702560      0.027250     Biso  1.000000 H
   H3         1.0     0.702650      0.527400      0.250000     Biso  1.000000 H
   H3         1.0     0.797350      0.527400      0.250000     Biso  1.000000 H
   H3         1.0     0.527400      0.750000      0.297340     Biso  1.000000 H
   H3         1.0     0.527400      0.750000      0.202660     Biso  1.000000 H
   H3         1.0     0.702650      0.750000      0.527400     Biso  1.000000 H
   H3         1.0     0.797350      0.750000      0.527400     Biso  1.000000 H
   H3         1.0     0.972760      0.797450      0.750000     Biso  1.000000 H
   H3         1.0     0.972760      0.702550      0.750000     Biso  1.000000 H
   H3         1.0     0.750000      0.972760      0.797450     Biso  1.000000 H
   H3         1.0     0.750000      0.972760      0.702550     Biso  1.000000 H
   H1         1.0     0.716590      0.716590      0.871320     Biso  1.000000 H
   H2         1.0     0.716510      0.716510      0.925950     Biso  1.000000 H
   H3         1.0     0.750000      0.702550      0.972760     Biso  1.000000 H
   H1         1.0     0.783400      0.783400      0.871310     Biso  1.000000 H
   H2         1.0     0.783500      0.783500      0.925970     Biso  1.000000 H
   H3         1.0     0.750000      0.797450      0.972760     Biso  1.000000 H
   H1         1.0     0.716600      0.783420      0.628680     Biso  1.000000 H
   H2         1.0     0.716510      0.783500      0.574040     Biso  1.000000 H
   H1         1.0     0.783420      0.716600      0.628680     Biso  1.000000 H
   H2         1.0     0.783500      0.716510      0.574040     Biso  1.000000 H
   H1         1.0     0.716600      0.628680      0.783420     Biso  1.000000 H
   H2         1.0     0.716510      0.574040      0.783500     Biso  1.000000 H
   H3         1.0     0.702650      0.527400      0.750000     Biso  1.000000 H
   H1         1.0     0.783420      0.628680      0.716600     Biso  1.000000 H
   H2         1.0     0.783500      0.574040      0.716510     Biso  1.000000 H
   H3         1.0     0.797350      0.527400      0.750000     Biso  1.000000 H
   H1         1.0     0.783400      0.871310      0.783400     Biso  1.000000 H
   H2         1.0     0.783500      0.925970      0.783500     Biso  1.000000 H
   H1         1.0     0.716590      0.871320      0.716590     Biso  1.000000 H
   H2         1.0     0.716510      0.925950      0.716510     Biso  1.000000 H
   H1         1.0     0.628680      0.716600      0.783420     Biso  1.000000 H
   H2         1.0     0.574040      0.716510      0.783500     Biso  1.000000 H
   H3         1.0     0.527400      0.750000      0.797350     Biso  1.000000 H
   H1         1.0     0.628680      0.783420      0.716600     Biso  1.000000 H
   H2         1.0     0.574040      0.783500      0.716510     Biso  1.000000 H
   H3         1.0     0.527400      0.750000      0.702650     Biso  1.000000 H
   H1         1.0     0.871320      0.716590      0.716590     Biso  1.000000 H
   H2         1.0     0.925950      0.716510      0.716510     Biso  1.000000 H
   H1         1.0     0.871310      0.783400      0.783400     Biso  1.000000 H
   H2         1.0     0.925970      0.783500      0.783500     Biso  1.000000 H
