#======================================================================

# CRYSTAL DATA

#----------------------------------------------------------------------

data_VESTA_phase_1


_chemical_name_common                  ''
_cell_length_a                         54.18410
_cell_length_b                         54.18410
_cell_length_c                         49.09140
_cell_angle_alpha                      90
_cell_angle_beta                       90
_cell_angle_gamma                      120
_space_group_name_H-M_alt              'P 1'
_space_group_IT_number                 1

loop_
_space_group_symop_operation_xyz
   'x, y, z'

loop_
   _atom_site_label
   _atom_site_occupancy
   _atom_site_fract_x
   _atom_site_fract_y
   _atom_site_fract_z
   _atom_site_adp_type
   _atom_site_B_iso_or_equiv
   _atom_site_type_symbol
   C1         1.0     0.330860      0.639760      0.387780     Biso  1.000000 C
   C2         1.0     0.360240      0.691100      0.387780     Biso  1.000000 C
   C3         1.0     0.308900      0.669140      0.387780     Biso  1.000000 C
   C4         1.0     0.639760      0.330860      0.612220     Biso  1.000000 C
   C5         1.0     0.691100      0.360240      0.612220     Biso  1.000000 C
   C6         1.0     0.669140      0.308900      0.612220     Biso  1.000000 C
   C7         1.0     0.997527      0.973093      0.721113     Biso  1.000000 C
   C8         1.0     0.026907      0.024433      0.721113     Biso  1.000000 C
   C9         1.0     0.975567      0.002473      0.721113     Biso  1.000000 C
   C10        1.0     0.306427      0.664193      0.945553     Biso  1.000000 C
   C11        1.0     0.357767      0.693573      0.945553     Biso  1.000000 C
   C12        1.0     0.335807      0.642233      0.945553     Biso  1.000000 C
   C13        1.0     0.664193      0.306427      0.054447     Biso  1.000000 C
   C14        1.0     0.693573      0.357767      0.054447     Biso  1.000000 C
   C15        1.0     0.642233      0.335807      0.054447     Biso  1.000000 C
   C16        1.0     0.973093      0.997527      0.278887     Biso  1.000000 C
   C17        1.0     0.024433      0.026907      0.278887     Biso  1.000000 C
   C18        1.0     0.002473      0.975567      0.278887     Biso  1.000000 C
   C19        1.0     0.328720      0.616410      0.373680     Biso  1.000000 C
   C20        1.0     0.383590      0.712310      0.373680     Biso  1.000000 C
   C21        1.0     0.287690      0.671280      0.373680     Biso  1.000000 C
   C22        1.0     0.616410      0.328720      0.626320     Biso  1.000000 C
   C23        1.0     0.712310      0.383590      0.626320     Biso  1.000000 C
   C24        1.0     0.671280      0.287690      0.626320     Biso  1.000000 C
   C25        1.0     0.995387      0.949743      0.707013     Biso  1.000000 C
   C26        1.0     0.050257      0.045643      0.707013     Biso  1.000000 C
   C27        1.0     0.954357      0.004613      0.707013     Biso  1.000000 C
   C28        1.0     0.283077      0.662053      0.959653     Biso  1.000000 C
   C29        1.0     0.378977      0.716923      0.959653     Biso  1.000000 C
   C30        1.0     0.337947      0.621023      0.959653     Biso  1.000000 C
   C31        1.0     0.662053      0.283077      0.040347     Biso  1.000000 C
   C32        1.0     0.716923      0.378977      0.040347     Biso  1.000000 C
   C33        1.0     0.621023      0.337947      0.040347     Biso  1.000000 C
   C34        1.0     0.949743      0.995387      0.292987     Biso  1.000000 C
   C35        1.0     0.045643      0.050257      0.292987     Biso  1.000000 C
   C36        1.0     0.004613      0.954357      0.292987     Biso  1.000000 C
   C37        1.0     0.326670      0.593130      0.388420     Biso  1.000000 C
   C38        1.0     0.406870      0.733540      0.388420     Biso  1.000000 C
   C39        1.0     0.266460      0.673330      0.388420     Biso  1.000000 C
   C40        1.0     0.593130      0.326670      0.611580     Biso  1.000000 C
   C41        1.0     0.733540      0.406870      0.611580     Biso  1.000000 C
   C42        1.0     0.673330      0.266460      0.611580     Biso  1.000000 C
   C43        1.0     0.993337      0.926463      0.721753     Biso  1.000000 C
   C44        1.0     0.073537      0.066873      0.721753     Biso  1.000000 C
   C45        1.0     0.933127      0.006663      0.721753     Biso  1.000000 C
   C46        1.0     0.259797      0.660003      0.944913     Biso  1.000000 C
   C47        1.0     0.400207      0.740203      0.944913     Biso  1.000000 C
   C48        1.0     0.339997      0.599793      0.944913     Biso  1.000000 C
   C49        1.0     0.660003      0.259797      0.055087     Biso  1.000000 C
   C50        1.0     0.740203      0.400207      0.055087     Biso  1.000000 C
   C51        1.0     0.599793      0.339997      0.055087     Biso  1.000000 C
   C52        1.0     0.926463      0.993337      0.278247     Biso  1.000000 C
   C53        1.0     0.066873      0.073537      0.278247     Biso  1.000000 C
   C54        1.0     0.006663      0.933127      0.278247     Biso  1.000000 C
   C55        1.0     0.345780      0.570370      0.357240     Biso  1.000000 C
   C56        1.0     0.429630      0.775410      0.357240     Biso  1.000000 C
   C57        1.0     0.224590      0.654220      0.357240     Biso  1.000000 C
   C58        1.0     0.570370      0.345780      0.642760     Biso  1.000000 C
   C59        1.0     0.775410      0.429630      0.642760     Biso  1.000000 C
   C60        1.0     0.654220      0.224590      0.642760     Biso  1.000000 C
   C61        1.0     0.012447      0.903703      0.690573     Biso  1.000000 C
   C62        1.0     0.096297      0.108743      0.690573     Biso  1.000000 C
   C63        1.0     0.891257      0.987553      0.690573     Biso  1.000000 C
   C64        1.0     0.237037      0.679113      0.976093     Biso  1.000000 C
   C65        1.0     0.442077      0.762963      0.976093     Biso  1.000000 C
   C66        1.0     0.320887      0.557923      0.976093     Biso  1.000000 C
   C67        1.0     0.679113      0.237037      0.023907     Biso  1.000000 C
   C68        1.0     0.762963      0.442077      0.023907     Biso  1.000000 C
   C69        1.0     0.557923      0.320887      0.023907     Biso  1.000000 C
   C70        1.0     0.903703      0.012447      0.309427     Biso  1.000000 C
   C71        1.0     0.108743      0.096297      0.309427     Biso  1.000000 C
   C72        1.0     0.987553      0.891257      0.309427     Biso  1.000000 C
   C73        1.0     0.323460      0.568070      0.373490     Biso  1.000000 C
   C74        1.0     0.431930      0.755390      0.373490     Biso  1.000000 C
   C75        1.0     0.244610      0.676540      0.373490     Biso  1.000000 C
   C76        1.0     0.568070      0.323460      0.626510     Biso  1.000000 C
   C77        1.0     0.755390      0.431930      0.626510     Biso  1.000000 C
   C78        1.0     0.676540      0.244610      0.626510     Biso  1.000000 C
   C79        1.0     0.990127      0.901403      0.706823     Biso  1.000000 C
   C80        1.0     0.098597      0.088723      0.706823     Biso  1.000000 C
   C81        1.0     0.911277      0.009873      0.706823     Biso  1.000000 C
   C82        1.0     0.234737      0.656793      0.959843     Biso  1.000000 C
   C83        1.0     0.422057      0.765263      0.959843     Biso  1.000000 C
   C84        1.0     0.343207      0.577943      0.959843     Biso  1.000000 C
   C85        1.0     0.656793      0.234737      0.040157     Biso  1.000000 C
   C86        1.0     0.765263      0.422057      0.040157     Biso  1.000000 C
   C87        1.0     0.577943      0.343207      0.040157     Biso  1.000000 C
   C88        1.0     0.901403      0.990127      0.293177     Biso  1.000000 C
   C89        1.0     0.088723      0.098597      0.293177     Biso  1.000000 C
   C90        1.0     0.009873      0.911277      0.293177     Biso  1.000000 C
   C91        1.0     0.299350      0.541240      0.377850     Biso  1.000000 C
   C92        1.0     0.458760      0.758110      0.377850     Biso  1.000000 C
   C93        1.0     0.241890      0.700650      0.377850     Biso  1.000000 C
   C94        1.0     0.541240      0.299350      0.622150     Biso  1.000000 C
   C95        1.0     0.758110      0.458760      0.622150     Biso  1.000000 C
   C96        1.0     0.700650      0.241890      0.622150     Biso  1.000000 C
   C97        1.0     0.966017      0.874573      0.711183     Biso  1.000000 C
   C98        1.0     0.125427      0.091443      0.711183     Biso  1.000000 C
   C99        1.0     0.908557      0.033983      0.711183     Biso  1.000000 C
   C100       1.0     0.207907      0.632683      0.955483     Biso  1.000000 C
   C101       1.0     0.424777      0.792093      0.955483     Biso  1.000000 C
   C102       1.0     0.367317      0.575223      0.955483     Biso  1.000000 C
   C103       1.0     0.632683      0.207907      0.044517     Biso  1.000000 C
   C104       1.0     0.792093      0.424777      0.044517     Biso  1.000000 C
   C105       1.0     0.575223      0.367317      0.044517     Biso  1.000000 C
   C106       1.0     0.874573      0.966017      0.288817     Biso  1.000000 C
   C107       1.0     0.091443      0.125427      0.288817     Biso  1.000000 C
   C108       1.0     0.033983      0.908557      0.288817     Biso  1.000000 C
   C109       1.0     0.298330      0.516760      0.367490     Biso  1.000000 C
   C110       1.0     0.483240      0.781570      0.367490     Biso  1.000000 C
   C111       1.0     0.218430      0.701670      0.367490     Biso  1.000000 C
   C112       1.0     0.516760      0.298330      0.632510     Biso  1.000000 C
   C113       1.0     0.781570      0.483240      0.632510     Biso  1.000000 C
   C114       1.0     0.701670      0.218430      0.632510     Biso  1.000000 C
   C115       1.0     0.964997      0.850093      0.700823     Biso  1.000000 C
   C116       1.0     0.149907      0.114903      0.700823     Biso  1.000000 C
   C117       1.0     0.885097      0.035003      0.700823     Biso  1.000000 C
   C118       1.0     0.183427      0.631663      0.965843     Biso  1.000000 C
   C119       1.0     0.448237      0.816573      0.965843     Biso  1.000000 C
   C120       1.0     0.368337      0.551763      0.965843     Biso  1.000000 C
   C121       1.0     0.631663      0.183427      0.034157     Biso  1.000000 C
   C122       1.0     0.816573      0.448237      0.034157     Biso  1.000000 C
   C123       1.0     0.551763      0.368337      0.034157     Biso  1.000000 C
   C124       1.0     0.850093      0.964997      0.299177     Biso  1.000000 C
   C125       1.0     0.114903      0.149907      0.299177     Biso  1.000000 C
   C126       1.0     0.035003      0.885097      0.299177     Biso  1.000000 C
   C127       1.0     0.321520      0.518790      0.352900     Biso  1.000000 C
   C128       1.0     0.481210      0.802730      0.352900     Biso  1.000000 C
   C129       1.0     0.197270      0.678480      0.352900     Biso  1.000000 C
   C130       1.0     0.518790      0.321520      0.647100     Biso  1.000000 C
   C131       1.0     0.802730      0.481210      0.647100     Biso  1.000000 C
   C132       1.0     0.678480      0.197270      0.647100     Biso  1.000000 C
   C133       1.0     0.988187      0.852123      0.686233     Biso  1.000000 C
   C134       1.0     0.147877      0.136063      0.686233     Biso  1.000000 C
   C135       1.0     0.863937      0.011813      0.686233     Biso  1.000000 C
   C136       1.0     0.185457      0.654853      0.980433     Biso  1.000000 C
   C137       1.0     0.469397      0.814543      0.980433     Biso  1.000000 C
   C138       1.0     0.345147      0.530603      0.980433     Biso  1.000000 C
   C139       1.0     0.654853      0.185457      0.019567     Biso  1.000000 C
   C140       1.0     0.814543      0.469397      0.019567     Biso  1.000000 C
   C141       1.0     0.530603      0.345147      0.019567     Biso  1.000000 C
   C142       1.0     0.852123      0.988187      0.313767     Biso  1.000000 C
   C143       1.0     0.136063      0.147877      0.313767     Biso  1.000000 C
   C144       1.0     0.011813      0.863937      0.313767     Biso  1.000000 C
   C145       1.0     0.344940      0.545850      0.347160     Biso  1.000000 C
   C146       1.0     0.454150      0.799090      0.347160     Biso  1.000000 C
   C147       1.0     0.200910      0.655060      0.347160     Biso  1.000000 C
   C148       1.0     0.545850      0.344940      0.652840     Biso  1.000000 C
   C149       1.0     0.799090      0.454150      0.652840     Biso  1.000000 C
   C150       1.0     0.655060      0.200910      0.652840     Biso  1.000000 C
   C151       1.0     0.011607      0.879183      0.680493     Biso  1.000000 C
   C152       1.0     0.120817      0.132423      0.680493     Biso  1.000000 C
   C153       1.0     0.867577      0.988393      0.680493     Biso  1.000000 C
   C154       1.0     0.212517      0.678273      0.986173     Biso  1.000000 C
   C155       1.0     0.465757      0.787483      0.986173     Biso  1.000000 C
   C156       1.0     0.321727      0.534243      0.986173     Biso  1.000000 C
   C157       1.0     0.678273      0.212517      0.013827     Biso  1.000000 C
   C158       1.0     0.787483      0.465757      0.013827     Biso  1.000000 C
   C159       1.0     0.534243      0.321727      0.013827     Biso  1.000000 C
   C160       1.0     0.879183      0.011607      0.319507     Biso  1.000000 C
   C161       1.0     0.132423      0.120817      0.319507     Biso  1.000000 C
   C162       1.0     0.988393      0.867577      0.319507     Biso  1.000000 C
   C163       1.0     0.321980      0.492520      0.346210     Biso  1.000000 C
   C164       1.0     0.507480      0.829460      0.346210     Biso  1.000000 C
   C165       1.0     0.170540      0.678020      0.346210     Biso  1.000000 C
   C166       1.0     0.492520      0.321980      0.653790     Biso  1.000000 C
   C167       1.0     0.829460      0.507480      0.653790     Biso  1.000000 C
   C168       1.0     0.678020      0.170540      0.653790     Biso  1.000000 C
   C169       1.0     0.988647      0.825853      0.679543     Biso  1.000000 C
   C170       1.0     0.174147      0.162793      0.679543     Biso  1.000000 C
   C171       1.0     0.837207      0.011353      0.679543     Biso  1.000000 C
   C172       1.0     0.159187      0.655313      0.987123     Biso  1.000000 C
   C173       1.0     0.496127      0.840813      0.987123     Biso  1.000000 C
   C174       1.0     0.344687      0.503873      0.987123     Biso  1.000000 C
   C175       1.0     0.655313      0.159187      0.012877     Biso  1.000000 C
   C176       1.0     0.840813      0.496127      0.012877     Biso  1.000000 C
   C177       1.0     0.503873      0.344687      0.012877     Biso  1.000000 C
   C178       1.0     0.825853      0.988647      0.320457     Biso  1.000000 C
   C179       1.0     0.162793      0.174147      0.320457     Biso  1.000000 C
   C180       1.0     0.011353      0.837207      0.320457     Biso  1.000000 C
   C181       1.0     0.375520      0.474510      0.324350     Biso  1.000000 C
   C182       1.0     0.525490      0.901010      0.324350     Biso  1.000000 C
   C183       1.0     0.098990      0.624480      0.324350     Biso  1.000000 C
   C184       1.0     0.474510      0.375520      0.675650     Biso  1.000000 C
   C185       1.0     0.901010      0.525490      0.675650     Biso  1.000000 C
   C186       1.0     0.624480      0.098990      0.675650     Biso  1.000000 C
   C187       1.0     0.042187      0.807843      0.657683     Biso  1.000000 C
   C188       1.0     0.192157      0.234343      0.657683     Biso  1.000000 C
   C189       1.0     0.765657      0.957813      0.657683     Biso  1.000000 C
   C190       1.0     0.141177      0.708853      0.008983     Biso  1.000000 C
   C191       1.0     0.567677      0.858823      0.008983     Biso  1.000000 C
   C192       1.0     0.291147      0.432323      0.008983     Biso  1.000000 C
   C193       1.0     0.708853      0.141177      0.991017     Biso  1.000000 C
   C194       1.0     0.858823      0.567677      0.991017     Biso  1.000000 C
   C195       1.0     0.432323      0.291147      0.991017     Biso  1.000000 C
   C196       1.0     0.807843      0.042187      0.342317     Biso  1.000000 C
   C197       1.0     0.234343      0.192157      0.342317     Biso  1.000000 C
   C198       1.0     0.957813      0.765657      0.342317     Biso  1.000000 C
   C199       1.0     0.350230      0.469840      0.336620     Biso  1.000000 C
   C200       1.0     0.530160      0.880390      0.336620     Biso  1.000000 C
   C201       1.0     0.119610      0.649770      0.336620     Biso  1.000000 C
   C202       1.0     0.469840      0.350230      0.663380     Biso  1.000000 C
   C203       1.0     0.880390      0.530160      0.663380     Biso  1.000000 C
   C204       1.0     0.649770      0.119610      0.663380     Biso  1.000000 C
   C205       1.0     0.016897      0.803173      0.669953     Biso  1.000000 C
   C206       1.0     0.196827      0.213723      0.669953     Biso  1.000000 C
   C207       1.0     0.786277      0.983103      0.669953     Biso  1.000000 C
   C208       1.0     0.136507      0.683563      0.996713     Biso  1.000000 C
   C209       1.0     0.547057      0.863493      0.996713     Biso  1.000000 C
   C210       1.0     0.316437      0.452943      0.996713     Biso  1.000000 C
   C211       1.0     0.683563      0.136507      0.003287     Biso  1.000000 C
   C212       1.0     0.863493      0.547057      0.003287     Biso  1.000000 C
   C213       1.0     0.452943      0.316437      0.003287     Biso  1.000000 C
   C214       1.0     0.803173      0.016897      0.330047     Biso  1.000000 C
   C215       1.0     0.213723      0.196827      0.330047     Biso  1.000000 C
   C216       1.0     0.983103      0.786277      0.330047     Biso  1.000000 C
   C217       1.0     0.331490      0.442830      0.347710     Biso  1.000000 C
   C218       1.0     0.557170      0.888660      0.347710     Biso  1.000000 C
   C219       1.0     0.111340      0.668510      0.347710     Biso  1.000000 C
   C220       1.0     0.442830      0.331490      0.652290     Biso  1.000000 C
   C221       1.0     0.888660      0.557170      0.652290     Biso  1.000000 C
   C222       1.0     0.668510      0.111340      0.652290     Biso  1.000000 C
   C223       1.0     0.998157      0.776163      0.681043     Biso  1.000000 C
   C224       1.0     0.223837      0.221993      0.681043     Biso  1.000000 C
   C225       1.0     0.778007      0.001843      0.681043     Biso  1.000000 C
   C226       1.0     0.109497      0.664823      0.985623     Biso  1.000000 C
   C227       1.0     0.555327      0.890503      0.985623     Biso  1.000000 C
   C228       1.0     0.335177      0.444673      0.985623     Biso  1.000000 C
   C229       1.0     0.664823      0.109497      0.014377     Biso  1.000000 C
   C230       1.0     0.890503      0.555327      0.014377     Biso  1.000000 C
   C231       1.0     0.444673      0.335177      0.014377     Biso  1.000000 C
   C232       1.0     0.776163      0.998157      0.318957     Biso  1.000000 C
   C233       1.0     0.221993      0.223837      0.318957     Biso  1.000000 C
   C234       1.0     0.001843      0.778007      0.318957     Biso  1.000000 C
   C235       1.0     0.338130      0.421060      0.346450     Biso  1.000000 C
   C236       1.0     0.578940      0.917070      0.346450     Biso  1.000000 C
   C237       1.0     0.082930      0.661870      0.346450     Biso  1.000000 C
   C238       1.0     0.421060      0.338130      0.653550     Biso  1.000000 C
   C239       1.0     0.917070      0.578940      0.653550     Biso  1.000000 C
   C240       1.0     0.661870      0.082930      0.653550     Biso  1.000000 C
   C241       1.0     0.004797      0.754393      0.679783     Biso  1.000000 C
   C242       1.0     0.245607      0.250403      0.679783     Biso  1.000000 C
   C243       1.0     0.749597      0.995203      0.679783     Biso  1.000000 C
   C244       1.0     0.087727      0.671463      0.986883     Biso  1.000000 C
   C245       1.0     0.583737      0.912273      0.986883     Biso  1.000000 C
   C246       1.0     0.328537      0.416263      0.986883     Biso  1.000000 C
   C247       1.0     0.671463      0.087727      0.013117     Biso  1.000000 C
   C248       1.0     0.912273      0.583737      0.013117     Biso  1.000000 C
   C249       1.0     0.416263      0.328537      0.013117     Biso  1.000000 C
   C250       1.0     0.754393      0.004797      0.320217     Biso  1.000000 C
   C251       1.0     0.250403      0.245607      0.320217     Biso  1.000000 C
   C252       1.0     0.995203      0.749597      0.320217     Biso  1.000000 C
   C253       1.0     0.363590      0.425820      0.334290     Biso  1.000000 C
   C254       1.0     0.574180      0.937770      0.334290     Biso  1.000000 C
   C255       1.0     0.062230      0.636410      0.334290     Biso  1.000000 C
   C256       1.0     0.425820      0.363590      0.665710     Biso  1.000000 C
   C257       1.0     0.937770      0.574180      0.665710     Biso  1.000000 C
   C258       1.0     0.636410      0.062230      0.665710     Biso  1.000000 C
   C259       1.0     0.030257      0.759153      0.667623     Biso  1.000000 C
   C260       1.0     0.240847      0.271103      0.667623     Biso  1.000000 C
   C261       1.0     0.728897      0.969743      0.667623     Biso  1.000000 C
   C262       1.0     0.092487      0.696923      0.999043     Biso  1.000000 C
   C263       1.0     0.604437      0.907513      0.999043     Biso  1.000000 C
   C264       1.0     0.303077      0.395563      0.999043     Biso  1.000000 C
   C265       1.0     0.696923      0.092487      0.000957     Biso  1.000000 C
   C266       1.0     0.907513      0.604437      0.000957     Biso  1.000000 C
   C267       1.0     0.395563      0.303077      0.000957     Biso  1.000000 C
   C268       1.0     0.759153      0.030257      0.332377     Biso  1.000000 C
   C269       1.0     0.271103      0.240847      0.332377     Biso  1.000000 C
   C270       1.0     0.969743      0.728897      0.332377     Biso  1.000000 C
   C271       1.0     0.382220      0.452750      0.323040     Biso  1.000000 C
   C272       1.0     0.547250      0.929470      0.323040     Biso  1.000000 C
   C273       1.0     0.070530      0.617780      0.323040     Biso  1.000000 C
   C274       1.0     0.452750      0.382220      0.676960     Biso  1.000000 C
   C275       1.0     0.929470      0.547250      0.676960     Biso  1.000000 C
   C276       1.0     0.617780      0.070530      0.676960     Biso  1.000000 C
   C277       1.0     0.048887      0.786083      0.656373     Biso  1.000000 C
   C278       1.0     0.213917      0.262803      0.656373     Biso  1.000000 C
   C279       1.0     0.737197      0.951113      0.656373     Biso  1.000000 C
   C280       1.0     0.119417      0.715553      0.010293     Biso  1.000000 C
   C281       1.0     0.596137      0.880583      0.010293     Biso  1.000000 C
   C282       1.0     0.284447      0.403863      0.010293     Biso  1.000000 C
   C283       1.0     0.715553      0.119417      0.989707     Biso  1.000000 C
   C284       1.0     0.880583      0.596137      0.989707     Biso  1.000000 C
   C285       1.0     0.403863      0.284447      0.989707     Biso  1.000000 C
   C286       1.0     0.786083      0.048887      0.343627     Biso  1.000000 C
   C287       1.0     0.262803      0.213917      0.343627     Biso  1.000000 C
   C288       1.0     0.951113      0.737197      0.343627     Biso  1.000000 C
   C289       1.0     0.385070      0.359120      0.333640     Biso  1.000000 C
   C290       1.0     0.640880      0.025950      0.333640     Biso  1.000000 C
   C291       1.0     0.974050      0.614930      0.333640     Biso  1.000000 C
   C292       1.0     0.359120      0.385070      0.666360     Biso  1.000000 C
   C293       1.0     0.025950      0.640880      0.666360     Biso  1.000000 C
   C294       1.0     0.614930      0.974050      0.666360     Biso  1.000000 C
   C295       1.0     0.051737      0.692453      0.666973     Biso  1.000000 C
   C296       1.0     0.307547      0.359283      0.666973     Biso  1.000000 C
   C297       1.0     0.640717      0.948263      0.666973     Biso  1.000000 C
   C298       1.0     0.025787      0.718403      0.999693     Biso  1.000000 C
   C299       1.0     0.692617      0.974213      0.999693     Biso  1.000000 C
   C300       1.0     0.281597      0.307383      0.999693     Biso  1.000000 C
   C301       1.0     0.718403      0.025787      0.000307     Biso  1.000000 C
   C302       1.0     0.974213      0.692617      0.000307     Biso  1.000000 C
   C303       1.0     0.307383      0.281597      0.000307     Biso  1.000000 C
   C304       1.0     0.692453      0.051737      0.333027     Biso  1.000000 C
   C305       1.0     0.359283      0.307547      0.333027     Biso  1.000000 C
   C306       1.0     0.948263      0.640717      0.333027     Biso  1.000000 C
   C307       1.0     0.356890      0.424910      0.626180     Biso  1.000000 C
   C308       1.0     0.575090      0.931980      0.626180     Biso  1.000000 C
   C309       1.0     0.068020      0.643110      0.626180     Biso  1.000000 C
   C310       1.0     0.424910      0.356890      0.373820     Biso  1.000000 C
   C311       1.0     0.931980      0.575090      0.373820     Biso  1.000000 C
   C312       1.0     0.643110      0.068020      0.373820     Biso  1.000000 C
   C313       1.0     0.023557      0.758243      0.959513     Biso  1.000000 C
   C314       1.0     0.241757      0.265313      0.959513     Biso  1.000000 C
   C315       1.0     0.734687      0.976443      0.959513     Biso  1.000000 C
   C316       1.0     0.091577      0.690223      0.707153     Biso  1.000000 C
   C317       1.0     0.598647      0.908423      0.707153     Biso  1.000000 C
   C318       1.0     0.309777      0.401353      0.707153     Biso  1.000000 C
   C319       1.0     0.690223      0.091577      0.292847     Biso  1.000000 C
   C320       1.0     0.908423      0.598647      0.292847     Biso  1.000000 C
   C321       1.0     0.401353      0.309777      0.292847     Biso  1.000000 C
   C322       1.0     0.758243      0.023557      0.040487     Biso  1.000000 C
   C323       1.0     0.265313      0.241757      0.040487     Biso  1.000000 C
   C324       1.0     0.976443      0.734687      0.040487     Biso  1.000000 C
   C325       1.0     0.332550      0.407280      0.642020     Biso  1.000000 C
   C326       1.0     0.592720      0.925270      0.642020     Biso  1.000000 C
   C327       1.0     0.074730      0.667450      0.642020     Biso  1.000000 C
   C328       1.0     0.407280      0.332550      0.357980     Biso  1.000000 C
   C329       1.0     0.925270      0.592720      0.357980     Biso  1.000000 C
   C330       1.0     0.667450      0.074730      0.357980     Biso  1.000000 C
   C331       1.0     0.999217      0.740613      0.975353     Biso  1.000000 C
   C332       1.0     0.259387      0.258603      0.975353     Biso  1.000000 C
   C333       1.0     0.741397      0.000783      0.975353     Biso  1.000000 C
   C334       1.0     0.073947      0.665883      0.691313     Biso  1.000000 C
   C335       1.0     0.591937      0.926053      0.691313     Biso  1.000000 C
   C336       1.0     0.334117      0.408063      0.691313     Biso  1.000000 C
   C337       1.0     0.665883      0.073947      0.308687     Biso  1.000000 C
   C338       1.0     0.926053      0.591937      0.308687     Biso  1.000000 C
   C339       1.0     0.408063      0.334117      0.308687     Biso  1.000000 C
   C340       1.0     0.740613      0.999217      0.024647     Biso  1.000000 C
   C341       1.0     0.258603      0.259387      0.024647     Biso  1.000000 C
   C342       1.0     0.000783      0.741397      0.024647     Biso  1.000000 C
   C343       1.0     0.307460      0.408320      0.636840     Biso  1.000000 C
   C344       1.0     0.591680      0.899140      0.636840     Biso  1.000000 C
   C345       1.0     0.100860      0.692540      0.636840     Biso  1.000000 C
   C346       1.0     0.408320      0.307460      0.363160     Biso  1.000000 C
   C347       1.0     0.899140      0.591680      0.363160     Biso  1.000000 C
   C348       1.0     0.692540      0.100860      0.363160     Biso  1.000000 C
   C349       1.0     0.974127      0.741653      0.970173     Biso  1.000000 C
   C350       1.0     0.258347      0.232473      0.970173     Biso  1.000000 C
   C351       1.0     0.767527      0.025873      0.970173     Biso  1.000000 C
   C352       1.0     0.074987      0.640793      0.696493     Biso  1.000000 C
   C353       1.0     0.565807      0.925013      0.696493     Biso  1.000000 C
   C354       1.0     0.359207      0.434193      0.696493     Biso  1.000000 C
   C355       1.0     0.640793      0.074987      0.303507     Biso  1.000000 C
   C356       1.0     0.925013      0.565807      0.303507     Biso  1.000000 C
   C357       1.0     0.434193      0.359207      0.303507     Biso  1.000000 C
   C358       1.0     0.741653      0.974127      0.029827     Biso  1.000000 C
   C359       1.0     0.232473      0.258347      0.029827     Biso  1.000000 C
   C360       1.0     0.025873      0.767527      0.029827     Biso  1.000000 C
   C361       1.0     0.306020      0.424440      0.615420     Biso  1.000000 C
   C362       1.0     0.575560      0.881580      0.615420     Biso  1.000000 C
   C363       1.0     0.118420      0.693980      0.615420     Biso  1.000000 C
   C364       1.0     0.424440      0.306020      0.384580     Biso  1.000000 C
   C365       1.0     0.881580      0.575560      0.384580     Biso  1.000000 C
   C366       1.0     0.693980      0.118420      0.384580     Biso  1.000000 C
   C367       1.0     0.972687      0.757773      0.948753     Biso  1.000000 C
   C368       1.0     0.242227      0.214913      0.948753     Biso  1.000000 C
   C369       1.0     0.785087      0.027313      0.948753     Biso  1.000000 C
   C370       1.0     0.091107      0.639353      0.717913     Biso  1.000000 C
   C371       1.0     0.548247      0.908893      0.717913     Biso  1.000000 C
   C372       1.0     0.360647      0.451753      0.717913     Biso  1.000000 C
   C373       1.0     0.639353      0.091107      0.282087     Biso  1.000000 C
   C374       1.0     0.908893      0.548247      0.282087     Biso  1.000000 C
   C375       1.0     0.451753      0.360647      0.282087     Biso  1.000000 C
   C376       1.0     0.757773      0.972687      0.051247     Biso  1.000000 C
   C377       1.0     0.214913      0.242227      0.051247     Biso  1.000000 C
   C378       1.0     0.027313      0.785087      0.051247     Biso  1.000000 C
   C379       1.0     0.329960      0.440940      0.599090     Biso  1.000000 C
   C380       1.0     0.559060      0.889020      0.599090     Biso  1.000000 C
   C381       1.0     0.110980      0.670040      0.599090     Biso  1.000000 C
   C382       1.0     0.440940      0.329960      0.400910     Biso  1.000000 C
   C383       1.0     0.889020      0.559060      0.400910     Biso  1.000000 C
   C384       1.0     0.670040      0.110980      0.400910     Biso  1.000000 C
   C385       1.0     0.996627      0.774273      0.932423     Biso  1.000000 C
   C386       1.0     0.225727      0.222353      0.932423     Biso  1.000000 C
   C387       1.0     0.777647      0.003373      0.932423     Biso  1.000000 C
   C388       1.0     0.107607      0.663293      0.734243     Biso  1.000000 C
   C389       1.0     0.555687      0.892393      0.734243     Biso  1.000000 C
   C390       1.0     0.336707      0.444313      0.734243     Biso  1.000000 C
   C391       1.0     0.663293      0.107607      0.265757     Biso  1.000000 C
   C392       1.0     0.892393      0.555687      0.265757     Biso  1.000000 C
   C393       1.0     0.444313      0.336707      0.265757     Biso  1.000000 C
   C394       1.0     0.774273      0.996627      0.067577     Biso  1.000000 C
   C395       1.0     0.222353      0.225727      0.067577     Biso  1.000000 C
   C396       1.0     0.003373      0.777647      0.067577     Biso  1.000000 C
   C397       1.0     0.355430      0.441110      0.604740     Biso  1.000000 C
   C398       1.0     0.558890      0.914320      0.604740     Biso  1.000000 C
   C399       1.0     0.085680      0.644570      0.604740     Biso  1.000000 C
   C400       1.0     0.441110      0.355430      0.395260     Biso  1.000000 C
   C401       1.0     0.914320      0.558890      0.395260     Biso  1.000000 C
   C402       1.0     0.644570      0.085680      0.395260     Biso  1.000000 C
   C403       1.0     0.022097      0.774443      0.938073     Biso  1.000000 C
   C404       1.0     0.225557      0.247653      0.938073     Biso  1.000000 C
   C405       1.0     0.752347      0.977903      0.938073     Biso  1.000000 C
   C406       1.0     0.107777      0.688763      0.728593     Biso  1.000000 C
   C407       1.0     0.580987      0.892223      0.728593     Biso  1.000000 C
   C408       1.0     0.311237      0.419013      0.728593     Biso  1.000000 C
   C409       1.0     0.688763      0.107777      0.271407     Biso  1.000000 C
   C410       1.0     0.892223      0.580987      0.271407     Biso  1.000000 C
   C411       1.0     0.419013      0.311237      0.271407     Biso  1.000000 C
   C412       1.0     0.774443      0.022097      0.061927     Biso  1.000000 C
   C413       1.0     0.247653      0.225557      0.061927     Biso  1.000000 C
   C414       1.0     0.977903      0.752347      0.061927     Biso  1.000000 C
   C415       1.0     0.315800      0.475110      0.580020     Biso  1.000000 C
   C416       1.0     0.524890      0.840690      0.580020     Biso  1.000000 C
   C417       1.0     0.159310      0.684200      0.580020     Biso  1.000000 C
   C418       1.0     0.475110      0.315800      0.419980     Biso  1.000000 C
   C419       1.0     0.840690      0.524890      0.419980     Biso  1.000000 C
   C420       1.0     0.684200      0.159310      0.419980     Biso  1.000000 C
   C421       1.0     0.982467      0.808443      0.913353     Biso  1.000000 C
   C422       1.0     0.191557      0.174023      0.913353     Biso  1.000000 C
   C423       1.0     0.825977      0.017533      0.913353     Biso  1.000000 C
   C424       1.0     0.141777      0.649133      0.753313     Biso  1.000000 C
   C425       1.0     0.507357      0.858223      0.753313     Biso  1.000000 C
   C426       1.0     0.350867      0.492643      0.753313     Biso  1.000000 C
   C427       1.0     0.649133      0.141777      0.246687     Biso  1.000000 C
   C428       1.0     0.858223      0.507357      0.246687     Biso  1.000000 C
   C429       1.0     0.492643      0.350867      0.246687     Biso  1.000000 C
   C430       1.0     0.808443      0.982467      0.086647     Biso  1.000000 C
   C431       1.0     0.174023      0.191557      0.086647     Biso  1.000000 C
   C432       1.0     0.017533      0.825977      0.086647     Biso  1.000000 C
   C433       1.0     0.328390      0.458070      0.576340     Biso  1.000000 C
   C434       1.0     0.541930      0.870320      0.576340     Biso  1.000000 C
   C435       1.0     0.129680      0.671610      0.576340     Biso  1.000000 C
   C436       1.0     0.458070      0.328390      0.423660     Biso  1.000000 C
   C437       1.0     0.870320      0.541930      0.423660     Biso  1.000000 C
   C438       1.0     0.671610      0.129680      0.423660     Biso  1.000000 C
   C439       1.0     0.995057      0.791403      0.909673     Biso  1.000000 C
   C440       1.0     0.208597      0.203653      0.909673     Biso  1.000000 C
   C441       1.0     0.796347      0.004943      0.909673     Biso  1.000000 C
   C442       1.0     0.124737      0.661723      0.756993     Biso  1.000000 C
   C443       1.0     0.536987      0.875263      0.756993     Biso  1.000000 C
   C444       1.0     0.338277      0.463013      0.756993     Biso  1.000000 C
   C445       1.0     0.661723      0.124737      0.243007     Biso  1.000000 C
   C446       1.0     0.875263      0.536987      0.243007     Biso  1.000000 C
   C447       1.0     0.463013      0.338277      0.243007     Biso  1.000000 C
   C448       1.0     0.791403      0.995057      0.090327     Biso  1.000000 C
   C449       1.0     0.203653      0.208597      0.090327     Biso  1.000000 C
   C450       1.0     0.004943      0.796347      0.090327     Biso  1.000000 C
   C451       1.0     0.339220      0.457190      0.550570     Biso  1.000000 C
   C452       1.0     0.542810      0.882030      0.550570     Biso  1.000000 C
   C453       1.0     0.117970      0.660780      0.550570     Biso  1.000000 C
   C454       1.0     0.457190      0.339220      0.449430     Biso  1.000000 C
   C455       1.0     0.882030      0.542810      0.449430     Biso  1.000000 C
   C456       1.0     0.660780      0.117970      0.449430     Biso  1.000000 C
   C457       1.0     0.005887      0.790523      0.883903     Biso  1.000000 C
   C458       1.0     0.209477      0.215363      0.883903     Biso  1.000000 C
   C459       1.0     0.784637      0.994113      0.883903     Biso  1.000000 C
   C460       1.0     0.123857      0.672553      0.782763     Biso  1.000000 C
   C461       1.0     0.548697      0.876143      0.782763     Biso  1.000000 C
   C462       1.0     0.327447      0.451303      0.782763     Biso  1.000000 C
   C463       1.0     0.672553      0.123857      0.217237     Biso  1.000000 C
   C464       1.0     0.876143      0.548697      0.217237     Biso  1.000000 C
   C465       1.0     0.451303      0.327447      0.217237     Biso  1.000000 C
   C466       1.0     0.790523      0.005887      0.116097     Biso  1.000000 C
   C467       1.0     0.215363      0.209477      0.116097     Biso  1.000000 C
   C468       1.0     0.994113      0.784637      0.116097     Biso  1.000000 C
   C469       1.0     0.337380      0.472870      0.528830     Biso  1.000000 C
   C470       1.0     0.527130      0.864510      0.528830     Biso  1.000000 C
   C471       1.0     0.135490      0.662620      0.528830     Biso  1.000000 C
   C472       1.0     0.472870      0.337380      0.471170     Biso  1.000000 C
   C473       1.0     0.864510      0.527130      0.471170     Biso  1.000000 C
   C474       1.0     0.662620      0.135490      0.471170     Biso  1.000000 C
   C475       1.0     0.004047      0.806203      0.862163     Biso  1.000000 C
   C476       1.0     0.193797      0.197843      0.862163     Biso  1.000000 C
   C477       1.0     0.802157      0.995953      0.862163     Biso  1.000000 C
   C478       1.0     0.139537      0.670713      0.804503     Biso  1.000000 C
   C479       1.0     0.531177      0.860463      0.804503     Biso  1.000000 C
   C480       1.0     0.329287      0.468823      0.804503     Biso  1.000000 C
   C481       1.0     0.670713      0.139537      0.195497     Biso  1.000000 C
   C482       1.0     0.860463      0.531177      0.195497     Biso  1.000000 C
   C483       1.0     0.468823      0.329287      0.195497     Biso  1.000000 C
   C484       1.0     0.806203      0.004047      0.137837     Biso  1.000000 C
   C485       1.0     0.197843      0.193797      0.137837     Biso  1.000000 C
   C486       1.0     0.995953      0.802157      0.137837     Biso  1.000000 C
   C487       1.0     0.324800      0.489910      0.532610     Biso  1.000000 C
   C488       1.0     0.510090      0.834890      0.532610     Biso  1.000000 C
   C489       1.0     0.165110      0.675200      0.532610     Biso  1.000000 C
   C490       1.0     0.489910      0.324800      0.467390     Biso  1.000000 C
   C491       1.0     0.834890      0.510090      0.467390     Biso  1.000000 C
   C492       1.0     0.675200      0.165110      0.467390     Biso  1.000000 C
   C493       1.0     0.991467      0.823243      0.865943     Biso  1.000000 C
   C494       1.0     0.176757      0.168223      0.865943     Biso  1.000000 C
   C495       1.0     0.831777      0.008533      0.865943     Biso  1.000000 C
   C496       1.0     0.156577      0.658133      0.800723     Biso  1.000000 C
   C497       1.0     0.501557      0.843423      0.800723     Biso  1.000000 C
   C498       1.0     0.341867      0.498443      0.800723     Biso  1.000000 C
   C499       1.0     0.658133      0.156577      0.199277     Biso  1.000000 C
   C500       1.0     0.843423      0.501557      0.199277     Biso  1.000000 C
   C501       1.0     0.498443      0.341867      0.199277     Biso  1.000000 C
   C502       1.0     0.823243      0.991467      0.134057     Biso  1.000000 C
   C503       1.0     0.168223      0.176757      0.134057     Biso  1.000000 C
   C504       1.0     0.008533      0.831777      0.134057     Biso  1.000000 C
   C505       1.0     0.313930      0.490670      0.558250     Biso  1.000000 C
   C506       1.0     0.509330      0.823260      0.558250     Biso  1.000000 C
   C507       1.0     0.176740      0.686070      0.558250     Biso  1.000000 C
   C508       1.0     0.490670      0.313930      0.441750     Biso  1.000000 C
   C509       1.0     0.823260      0.509330      0.441750     Biso  1.000000 C
   C510       1.0     0.686070      0.176740      0.441750     Biso  1.000000 C
   C511       1.0     0.980597      0.824003      0.891583     Biso  1.000000 C
   C512       1.0     0.175997      0.156593      0.891583     Biso  1.000000 C
   C513       1.0     0.843407      0.019403      0.891583     Biso  1.000000 C
   C514       1.0     0.157337      0.647263      0.775083     Biso  1.000000 C
   C515       1.0     0.489927      0.842663      0.775083     Biso  1.000000 C
   C516       1.0     0.352737      0.510073      0.775083     Biso  1.000000 C
   C517       1.0     0.647263      0.157337      0.224917     Biso  1.000000 C
   C518       1.0     0.842663      0.489927      0.224917     Biso  1.000000 C
   C519       1.0     0.510073      0.352737      0.224917     Biso  1.000000 C
   C520       1.0     0.824003      0.980597      0.108417     Biso  1.000000 C
   C521       1.0     0.156593      0.175997      0.108417     Biso  1.000000 C
   C522       1.0     0.019403      0.843407      0.108417     Biso  1.000000 C
   C523       1.0     0.335870      0.513370      0.488090     Biso  1.000000 C
   C524       1.0     0.486630      0.822500      0.488090     Biso  1.000000 C
   C525       1.0     0.177500      0.664130      0.488090     Biso  1.000000 C
   C526       1.0     0.513370      0.335870      0.511910     Biso  1.000000 C
   C527       1.0     0.822500      0.486630      0.511910     Biso  1.000000 C
   C528       1.0     0.664130      0.177500      0.511910     Biso  1.000000 C
   C529       1.0     0.002537      0.846703      0.821423     Biso  1.000000 C
   C530       1.0     0.153297      0.155833      0.821423     Biso  1.000000 C
   C531       1.0     0.844167      0.997463      0.821423     Biso  1.000000 C
   C532       1.0     0.180037      0.669203      0.845243     Biso  1.000000 C
   C533       1.0     0.489167      0.819963      0.845243     Biso  1.000000 C
   C534       1.0     0.330797      0.510833      0.845243     Biso  1.000000 C
   C535       1.0     0.669203      0.180037      0.154757     Biso  1.000000 C
   C536       1.0     0.819963      0.489167      0.154757     Biso  1.000000 C
   C537       1.0     0.510833      0.330797      0.154757     Biso  1.000000 C
   C538       1.0     0.846703      0.002537      0.178577     Biso  1.000000 C
   C539       1.0     0.155833      0.153297      0.178577     Biso  1.000000 C
   C540       1.0     0.997463      0.844167      0.178577     Biso  1.000000 C
   C541       1.0     0.327890      0.571110      0.433910     Biso  1.000000 C
   C542       1.0     0.428890      0.756780      0.433910     Biso  1.000000 C
   C543       1.0     0.243220      0.672110      0.433910     Biso  1.000000 C
   C544       1.0     0.571110      0.327890      0.566090     Biso  1.000000 C
   C545       1.0     0.756780      0.428890      0.566090     Biso  1.000000 C
   C546       1.0     0.672110      0.243220      0.566090     Biso  1.000000 C
   C547       1.0     0.994557      0.904443      0.767243     Biso  1.000000 C
   C548       1.0     0.095557      0.090113      0.767243     Biso  1.000000 C
   C549       1.0     0.909887      0.005443      0.767243     Biso  1.000000 C
   C550       1.0     0.237777      0.661223      0.899423     Biso  1.000000 C
   C551       1.0     0.423447      0.762223      0.899423     Biso  1.000000 C
   C552       1.0     0.338777      0.576553      0.899423     Biso  1.000000 C
   C553       1.0     0.661223      0.237777      0.100577     Biso  1.000000 C
   C554       1.0     0.762223      0.423447      0.100577     Biso  1.000000 C
   C555       1.0     0.576553      0.338777      0.100577     Biso  1.000000 C
   C556       1.0     0.904443      0.994557      0.232757     Biso  1.000000 C
   C557       1.0     0.090113      0.095557      0.232757     Biso  1.000000 C
   C558       1.0     0.005443      0.909887      0.232757     Biso  1.000000 C
   C559       1.0     0.327440      0.593810      0.417440     Biso  1.000000 C
   C560       1.0     0.406190      0.733630      0.417440     Biso  1.000000 C
   C561       1.0     0.266370      0.672560      0.417440     Biso  1.000000 C
   C562       1.0     0.593810      0.327440      0.582560     Biso  1.000000 C
   C563       1.0     0.733630      0.406190      0.582560     Biso  1.000000 C
   C564       1.0     0.672560      0.266370      0.582560     Biso  1.000000 C
   C565       1.0     0.994107      0.927143      0.750773     Biso  1.000000 C
   C566       1.0     0.072857      0.066963      0.750773     Biso  1.000000 C
   C567       1.0     0.933037      0.005893      0.750773     Biso  1.000000 C
   C568       1.0     0.260477      0.660773      0.915893     Biso  1.000000 C
   C569       1.0     0.400297      0.739523      0.915893     Biso  1.000000 C
   C570       1.0     0.339227      0.599703      0.915893     Biso  1.000000 C
   C571       1.0     0.660773      0.260477      0.084107     Biso  1.000000 C
   C572       1.0     0.739523      0.400297      0.084107     Biso  1.000000 C
   C573       1.0     0.599703      0.339227      0.084107     Biso  1.000000 C
   C574       1.0     0.927143      0.994107      0.249227     Biso  1.000000 C
   C575       1.0     0.066963      0.072857      0.249227     Biso  1.000000 C
   C576       1.0     0.005893      0.933037      0.249227     Biso  1.000000 C
   C577       1.0     0.329220      0.617290      0.431320     Biso  1.000000 C
   C578       1.0     0.382710      0.711930      0.431320     Biso  1.000000 C
   C579       1.0     0.288070      0.670780      0.431320     Biso  1.000000 C
   C580       1.0     0.617290      0.329220      0.568680     Biso  1.000000 C
   C581       1.0     0.711930      0.382710      0.568680     Biso  1.000000 C
   C582       1.0     0.670780      0.288070      0.568680     Biso  1.000000 C
   C583       1.0     0.995887      0.950623      0.764653     Biso  1.000000 C
   C584       1.0     0.049377      0.045263      0.764653     Biso  1.000000 C
   C585       1.0     0.954737      0.004113      0.764653     Biso  1.000000 C
   C586       1.0     0.283957      0.662553      0.902013     Biso  1.000000 C
   C587       1.0     0.378597      0.716043      0.902013     Biso  1.000000 C
   C588       1.0     0.337447      0.621403      0.902013     Biso  1.000000 C
   C589       1.0     0.662553      0.283957      0.097987     Biso  1.000000 C
   C590       1.0     0.716043      0.378597      0.097987     Biso  1.000000 C
   C591       1.0     0.621403      0.337447      0.097987     Biso  1.000000 C
   C592       1.0     0.950623      0.995887      0.235347     Biso  1.000000 C
   C593       1.0     0.045263      0.049377      0.235347     Biso  1.000000 C
   C594       1.0     0.004113      0.954737      0.235347     Biso  1.000000 C
   C595       1.0     0.330880      0.639950      0.416667     Biso  1.000000 C
   C596       1.0     0.360050      0.690930      0.416667     Biso  1.000000 C
   C597       1.0     0.309070      0.669120      0.416667     Biso  1.000000 C
   C598       1.0     0.639950      0.330880      0.583333     Biso  1.000000 C
   C599       1.0     0.690930      0.360050      0.583333     Biso  1.000000 C
   C600       1.0     0.669120      0.309070      0.583333     Biso  1.000000 C
   C601       1.0     0.997547      0.973283      0.750000     Biso  1.000000 C
   C602       1.0     0.026717      0.024263      0.750000     Biso  1.000000 C
   C603       1.0     0.975737      0.002453      0.750000     Biso  1.000000 C
   C604       1.0     0.306617      0.664213      0.916667     Biso  1.000000 C
   C605       1.0     0.357597      0.693383      0.916667     Biso  1.000000 C
   C606       1.0     0.335787      0.642403      0.916667     Biso  1.000000 C
   C607       1.0     0.664213      0.306617      0.083333     Biso  1.000000 C
   C608       1.0     0.693383      0.357597      0.083333     Biso  1.000000 C
   C609       1.0     0.642403      0.335787      0.083333     Biso  1.000000 C
   C610       1.0     0.973283      0.997547      0.250000     Biso  1.000000 C
   C611       1.0     0.024263      0.026717      0.250000     Biso  1.000000 C
   C612       1.0     0.002453      0.975737      0.250000     Biso  1.000000 C
   C613       1.0     0.308460      0.558330      0.455360     Biso  1.000000 C
   C614       1.0     0.441670      0.750130      0.455360     Biso  1.000000 C
   C615       1.0     0.249870      0.691540      0.455360     Biso  1.000000 C
   C616       1.0     0.558330      0.308460      0.544640     Biso  1.000000 C
   C617       1.0     0.750130      0.441670      0.544640     Biso  1.000000 C
   C618       1.0     0.691540      0.249870      0.544640     Biso  1.000000 C
   C619       1.0     0.975127      0.891663      0.788693     Biso  1.000000 C
   C620       1.0     0.108337      0.083463      0.788693     Biso  1.000000 C
   C621       1.0     0.916537      0.024873      0.788693     Biso  1.000000 C
   C622       1.0     0.224997      0.641793      0.877973     Biso  1.000000 C
   C623       1.0     0.416797      0.775003      0.877973     Biso  1.000000 C
   C624       1.0     0.358207      0.583203      0.877973     Biso  1.000000 C
   C625       1.0     0.641793      0.224997      0.122027     Biso  1.000000 C
   C626       1.0     0.775003      0.416797      0.122027     Biso  1.000000 C
   C627       1.0     0.583203      0.358207      0.122027     Biso  1.000000 C
   C628       1.0     0.891663      0.975127      0.211307     Biso  1.000000 C
   C629       1.0     0.083463      0.108337      0.211307     Biso  1.000000 C
   C630       1.0     0.024873      0.916537      0.211307     Biso  1.000000 C
   C631       1.0     0.310480      0.538960      0.472650     Biso  1.000000 C
   C632       1.0     0.461040      0.771520      0.472650     Biso  1.000000 C
   C633       1.0     0.228480      0.689520      0.472650     Biso  1.000000 C
   C634       1.0     0.538960      0.310480      0.527350     Biso  1.000000 C
   C635       1.0     0.771520      0.461040      0.527350     Biso  1.000000 C
   C636       1.0     0.689520      0.228480      0.527350     Biso  1.000000 C
   C637       1.0     0.977147      0.872293      0.805983     Biso  1.000000 C
   C638       1.0     0.127707      0.104853      0.805983     Biso  1.000000 C
   C639       1.0     0.895147      0.022853      0.805983     Biso  1.000000 C
   C640       1.0     0.205627      0.643813      0.860683     Biso  1.000000 C
   C641       1.0     0.438187      0.794373      0.860683     Biso  1.000000 C
   C642       1.0     0.356187      0.561813      0.860683     Biso  1.000000 C
   C643       1.0     0.643813      0.205627      0.139317     Biso  1.000000 C
   C644       1.0     0.794373      0.438187      0.139317     Biso  1.000000 C
   C645       1.0     0.561813      0.356187      0.139317     Biso  1.000000 C
   C646       1.0     0.872293      0.977147      0.194017     Biso  1.000000 C
   C647       1.0     0.104853      0.127707      0.194017     Biso  1.000000 C
   C648       1.0     0.022853      0.895147      0.194017     Biso  1.000000 C
   C649       1.0     0.332010      0.532020      0.468760     Biso  1.000000 C
   C650       1.0     0.467980      0.799990      0.468760     Biso  1.000000 C
   C651       1.0     0.200010      0.667990      0.468760     Biso  1.000000 C
   C652       1.0     0.532020      0.332010      0.531240     Biso  1.000000 C
   C653       1.0     0.799990      0.467980      0.531240     Biso  1.000000 C
   C654       1.0     0.667990      0.200010      0.531240     Biso  1.000000 C
   C655       1.0     0.998677      0.865353      0.802093     Biso  1.000000 C
   C656       1.0     0.134647      0.133323      0.802093     Biso  1.000000 C
   C657       1.0     0.866677      0.001323      0.802093     Biso  1.000000 C
   C658       1.0     0.198687      0.665343      0.864573     Biso  1.000000 C
   C659       1.0     0.466657      0.801313      0.864573     Biso  1.000000 C
   C660       1.0     0.334657      0.533343      0.864573     Biso  1.000000 C
   C661       1.0     0.665343      0.198687      0.135427     Biso  1.000000 C
   C662       1.0     0.801313      0.466657      0.135427     Biso  1.000000 C
   C663       1.0     0.533343      0.334657      0.135427     Biso  1.000000 C
   C664       1.0     0.865353      0.998677      0.197907     Biso  1.000000 C
   C665       1.0     0.133323      0.134647      0.197907     Biso  1.000000 C
   C666       1.0     0.001323      0.866677      0.197907     Biso  1.000000 C
   C667       1.0     0.349020      0.563720      0.429640     Biso  1.000000 C
   C668       1.0     0.436280      0.785300      0.429640     Biso  1.000000 C
   C669       1.0     0.214700      0.650980      0.429640     Biso  1.000000 C
   C670       1.0     0.563720      0.349020      0.570360     Biso  1.000000 C
   C671       1.0     0.785300      0.436280      0.570360     Biso  1.000000 C
   C672       1.0     0.650980      0.214700      0.570360     Biso  1.000000 C
   C673       1.0     0.015687      0.897053      0.762973     Biso  1.000000 C
   C674       1.0     0.102947      0.118633      0.762973     Biso  1.000000 C
   C675       1.0     0.881367      0.984313      0.762973     Biso  1.000000 C
   C676       1.0     0.230387      0.682353      0.903693     Biso  1.000000 C
   C677       1.0     0.451967      0.769613      0.903693     Biso  1.000000 C
   C678       1.0     0.317647      0.548033      0.903693     Biso  1.000000 C
   C679       1.0     0.682353      0.230387      0.096307     Biso  1.000000 C
   C680       1.0     0.769613      0.451967      0.096307     Biso  1.000000 C
   C681       1.0     0.548033      0.317647      0.096307     Biso  1.000000 C
   C682       1.0     0.897053      0.015687      0.237027     Biso  1.000000 C
   C683       1.0     0.118633      0.102947      0.237027     Biso  1.000000 C
   C684       1.0     0.984313      0.881367      0.237027     Biso  1.000000 C
   C685       1.0     0.350890      0.544140      0.446800     Biso  1.000000 C
   C686       1.0     0.455860      0.806750      0.446800     Biso  1.000000 C
   C687       1.0     0.193250      0.649110      0.446800     Biso  1.000000 C
   C688       1.0     0.544140      0.350890      0.553200     Biso  1.000000 C
   C689       1.0     0.806750      0.455860      0.553200     Biso  1.000000 C
   C690       1.0     0.649110      0.193250      0.553200     Biso  1.000000 C
   C691       1.0     0.017557      0.877473      0.780133     Biso  1.000000 C
   C692       1.0     0.122527      0.140083      0.780133     Biso  1.000000 C
   C693       1.0     0.859917      0.982443      0.780133     Biso  1.000000 C
   C694       1.0     0.210807      0.684223      0.886533     Biso  1.000000 C
   C695       1.0     0.473417      0.789193      0.886533     Biso  1.000000 C
   C696       1.0     0.315777      0.526583      0.886533     Biso  1.000000 C
   C697       1.0     0.684223      0.210807      0.113467     Biso  1.000000 C
   C698       1.0     0.789193      0.473417      0.113467     Biso  1.000000 C
   C699       1.0     0.526583      0.315777      0.113467     Biso  1.000000 C
   C700       1.0     0.877473      0.017557      0.219867     Biso  1.000000 C
   C701       1.0     0.140083      0.122527      0.219867     Biso  1.000000 C
   C702       1.0     0.982443      0.859917      0.219867     Biso  1.000000 C
   C703       1.0     0.365230      0.374370      0.642640     Biso  1.000000 C
   C704       1.0     0.625630      0.990860      0.642640     Biso  1.000000 C
   C705       1.0     0.009140      0.634770      0.642640     Biso  1.000000 C
   C706       1.0     0.374370      0.365230      0.357360     Biso  1.000000 C
   C707       1.0     0.990860      0.625630      0.357360     Biso  1.000000 C
   C708       1.0     0.634770      0.009140      0.357360     Biso  1.000000 C
   C709       1.0     0.031897      0.707703      0.975973     Biso  1.000000 C
   C710       1.0     0.292297      0.324193      0.975973     Biso  1.000000 C
   C711       1.0     0.675807      0.968103      0.975973     Biso  1.000000 C
   C712       1.0     0.041037      0.698563      0.690693     Biso  1.000000 C
   C713       1.0     0.657527      0.958963      0.690693     Biso  1.000000 C
   C714       1.0     0.301437      0.342473      0.690693     Biso  1.000000 C
   C715       1.0     0.698563      0.041037      0.309307     Biso  1.000000 C
   C716       1.0     0.958963      0.657527      0.309307     Biso  1.000000 C
   C717       1.0     0.342473      0.301437      0.309307     Biso  1.000000 C
   C718       1.0     0.707703      0.031897      0.024027     Biso  1.000000 C
   C719       1.0     0.324193      0.292297      0.024027     Biso  1.000000 C
   C720       1.0     0.968103      0.675807      0.024027     Biso  1.000000 C
   C721       1.0     0.387020      0.367750      0.642360     Biso  1.000000 C
   C722       1.0     0.632250      0.019270      0.642360     Biso  1.000000 C
   C723       1.0     0.980730      0.612980      0.642360     Biso  1.000000 C
   C724       1.0     0.367750      0.387020      0.357640     Biso  1.000000 C
   C725       1.0     0.019270      0.632250      0.357640     Biso  1.000000 C
   C726       1.0     0.612980      0.980730      0.357640     Biso  1.000000 C
   C727       1.0     0.053687      0.701083      0.975693     Biso  1.000000 C
   C728       1.0     0.298917      0.352603      0.975693     Biso  1.000000 C
   C729       1.0     0.647397      0.946313      0.975693     Biso  1.000000 C
   C730       1.0     0.034417      0.720353      0.690973     Biso  1.000000 C
   C731       1.0     0.685937      0.965583      0.690973     Biso  1.000000 C
   C732       1.0     0.279647      0.314063      0.690973     Biso  1.000000 C
   C733       1.0     0.720353      0.034417      0.309027     Biso  1.000000 C
   C734       1.0     0.965583      0.685937      0.309027     Biso  1.000000 C
   C735       1.0     0.314063      0.279647      0.309027     Biso  1.000000 C
   C736       1.0     0.701083      0.053687      0.024307     Biso  1.000000 C
   C737       1.0     0.352603      0.298917      0.024307     Biso  1.000000 C
   C738       1.0     0.946313      0.647397      0.024307     Biso  1.000000 C
   C739       1.0     0.402840      0.370800      0.666000     Biso  1.000000 C
   C740       1.0     0.629200      0.032040      0.666000     Biso  1.000000 C
   C741       1.0     0.967960      0.597160      0.666000     Biso  1.000000 C
   C742       1.0     0.370800      0.402840      0.334000     Biso  1.000000 C
   C743       1.0     0.032040      0.629200      0.334000     Biso  1.000000 C
   C744       1.0     0.597160      0.967960      0.334000     Biso  1.000000 C
   C745       1.0     0.069507      0.704133      0.999333     Biso  1.000000 C
   C746       1.0     0.295867      0.365373      0.999333     Biso  1.000000 C
   C747       1.0     0.634627      0.930493      0.999333     Biso  1.000000 C
   C748       1.0     0.037467      0.736173      0.667333     Biso  1.000000 C
   C749       1.0     0.698707      0.962533      0.667333     Biso  1.000000 C
   C750       1.0     0.263827      0.301293      0.667333     Biso  1.000000 C
   C751       1.0     0.736173      0.037467      0.332667     Biso  1.000000 C
   C752       1.0     0.962533      0.698707      0.332667     Biso  1.000000 C
   C753       1.0     0.301293      0.263827      0.332667     Biso  1.000000 C
   C754       1.0     0.704133      0.069507      0.000667     Biso  1.000000 C
   C755       1.0     0.365373      0.295867      0.000667     Biso  1.000000 C
   C756       1.0     0.930493      0.634627      0.000667     Biso  1.000000 C
   C757       1.0     0.396080      0.380050      0.690040     Biso  1.000000 C
   C758       1.0     0.619950      0.016030      0.690040     Biso  1.000000 C
   C759       1.0     0.983970      0.603920      0.690040     Biso  1.000000 C
   C760       1.0     0.380050      0.396080      0.309960     Biso  1.000000 C
   C761       1.0     0.016030      0.619950      0.309960     Biso  1.000000 C
   C762       1.0     0.603920      0.983970      0.309960     Biso  1.000000 C
   C763       1.0     0.062747      0.713383      0.023373     Biso  1.000000 C
   C764       1.0     0.286617      0.349363      0.023373     Biso  1.000000 C
   C765       1.0     0.650637      0.937253      0.023373     Biso  1.000000 C
   C766       1.0     0.046717      0.729413      0.643293     Biso  1.000000 C
   C767       1.0     0.682697      0.953283      0.643293     Biso  1.000000 C
   C768       1.0     0.270587      0.317303      0.643293     Biso  1.000000 C
   C769       1.0     0.729413      0.046717      0.356707     Biso  1.000000 C
   C770       1.0     0.953283      0.682697      0.356707     Biso  1.000000 C
   C771       1.0     0.317303      0.270587      0.356707     Biso  1.000000 C
   C772       1.0     0.713383      0.062747      0.976627     Biso  1.000000 C
   C773       1.0     0.349363      0.286617      0.976627     Biso  1.000000 C
   C774       1.0     0.937253      0.650637      0.976627     Biso  1.000000 C
   C775       1.0     0.374290      0.386670      0.690360     Biso  1.000000 C
   C776       1.0     0.613330      0.987620      0.690360     Biso  1.000000 C
   C777       1.0     0.012380      0.625710      0.690360     Biso  1.000000 C
   C778       1.0     0.386670      0.374290      0.309640     Biso  1.000000 C
   C779       1.0     0.987620      0.613330      0.309640     Biso  1.000000 C
   C780       1.0     0.625710      0.012380      0.309640     Biso  1.000000 C
   C781       1.0     0.040957      0.720003      0.023693     Biso  1.000000 C
   C782       1.0     0.279997      0.320953      0.023693     Biso  1.000000 C
   C783       1.0     0.679047      0.959043      0.023693     Biso  1.000000 C
   C784       1.0     0.053337      0.707623      0.642973     Biso  1.000000 C
   C785       1.0     0.654287      0.946663      0.642973     Biso  1.000000 C
   C786       1.0     0.292377      0.345713      0.642973     Biso  1.000000 C
   C787       1.0     0.707623      0.053337      0.357027     Biso  1.000000 C
   C788       1.0     0.946663      0.654287      0.357027     Biso  1.000000 C
   C789       1.0     0.345713      0.292377      0.357027     Biso  1.000000 C
   C790       1.0     0.720003      0.040957      0.976307     Biso  1.000000 C
   C791       1.0     0.320953      0.279997      0.976307     Biso  1.000000 C
   C792       1.0     0.959043      0.679047      0.976307     Biso  1.000000 C
   C793       1.0     0.333333      0.389930      0.666667     Biso  1.000000 C
   C794       1.0     0.610070      0.943403      0.666667     Biso  1.000000 C
   C795       1.0     0.056597      0.666667      0.666667     Biso  1.000000 C
   C796       1.0     0.389930      0.333333      0.333333     Biso  1.000000 C
   C797       1.0     0.943403      0.610070      0.333333     Biso  1.000000 C
   C798       1.0     0.666667      0.056597      0.333333     Biso  1.000000 C
   C799       1.0     0.000000      0.723263      0.000000     Biso  1.000000 C
   C800       1.0     0.276737      0.276737      0.000000     Biso  1.000000 C
   C801       1.0     0.723263      0.000000      0.000000     Biso  1.000000 C
   C802       1.0     0.333333      0.666667      0.958410     Biso  1.000000 C
   C803       1.0     0.666667      0.333333      0.041590     Biso  1.000000 C
   C804       1.0     0.000000      0.000000      0.291743     Biso  1.000000 C
   C805       1.0     0.333333      0.666667      0.374923     Biso  1.000000 C
   C806       1.0     0.666667      0.333333      0.625077     Biso  1.000000 C
   C807       1.0     0.000000      0.000000      0.708257     Biso  1.000000 C
   C808       1.0     0.333333      0.666667      0.903990     Biso  1.000000 C
   C809       1.0     0.666667      0.333333      0.096010     Biso  1.000000 C
   C810       1.0     0.000000      0.000000      0.237323     Biso  1.000000 C
   C811       1.0     0.333333      0.666667      0.429343     Biso  1.000000 C
   C812       1.0     0.666667      0.333333      0.570657     Biso  1.000000 C
   C813       1.0     0.000000      0.000000      0.762677     Biso  1.000000 C
   N1         1.0     0.345770      0.493680      0.339670     Biso  1.000000 N
   N2         1.0     0.506320      0.852090      0.339670     Biso  1.000000 N
   N3         1.0     0.147910      0.654230      0.339670     Biso  1.000000 N
   N4         1.0     0.493680      0.345770      0.660330     Biso  1.000000 N
   N5         1.0     0.852090      0.506320      0.660330     Biso  1.000000 N
   N6         1.0     0.654230      0.147910      0.660330     Biso  1.000000 N
   N7         1.0     0.012437      0.827013      0.673003     Biso  1.000000 N
   N8         1.0     0.172987      0.185423      0.673003     Biso  1.000000 N
   N9         1.0     0.814577      0.987563      0.673003     Biso  1.000000 N
   N10        1.0     0.160347      0.679103      0.993663     Biso  1.000000 N
   N11        1.0     0.518757      0.839653      0.993663     Biso  1.000000 N
   N12        1.0     0.320897      0.481243      0.993663     Biso  1.000000 N
   N13        1.0     0.679103      0.160347      0.006337     Biso  1.000000 N
   N14        1.0     0.839653      0.518757      0.006337     Biso  1.000000 N
   N15        1.0     0.481243      0.320897      0.006337     Biso  1.000000 N
   N16        1.0     0.827013      0.012437      0.326997     Biso  1.000000 N
   N17        1.0     0.185423      0.172987      0.326997     Biso  1.000000 N
   N18        1.0     0.987563      0.814577      0.326997     Biso  1.000000 N
   N19        1.0     0.322340      0.506600      0.511180     Biso  1.000000 N
   N20        1.0     0.493400      0.815740      0.511180     Biso  1.000000 N
   N21        1.0     0.184260      0.677660      0.511180     Biso  1.000000 N
   N22        1.0     0.506600      0.322340      0.488820     Biso  1.000000 N
   N23        1.0     0.815740      0.493400      0.488820     Biso  1.000000 N
   N24        1.0     0.677660      0.184260      0.488820     Biso  1.000000 N
   N25        1.0     0.989007      0.839933      0.844513     Biso  1.000000 N
   N26        1.0     0.160067      0.149073      0.844513     Biso  1.000000 N
   N27        1.0     0.850927      0.010993      0.844513     Biso  1.000000 N
   N28        1.0     0.173267      0.655673      0.822153     Biso  1.000000 N
   N29        1.0     0.482407      0.826733      0.822153     Biso  1.000000 N
   N30        1.0     0.344327      0.517593      0.822153     Biso  1.000000 N
   N31        1.0     0.655673      0.173267      0.177847     Biso  1.000000 N
   N32        1.0     0.826733      0.482407      0.177847     Biso  1.000000 N
   N33        1.0     0.517593      0.344327      0.177847     Biso  1.000000 N
   N34        1.0     0.839933      0.989007      0.155487     Biso  1.000000 N
   N35        1.0     0.149073      0.160067      0.155487     Biso  1.000000 N
   N36        1.0     0.010993      0.850927      0.155487     Biso  1.000000 N
   F1         1.0     0.407440      0.458440      0.311870     Biso  1.000000 F
   F2         1.0     0.541560      0.949000      0.311870     Biso  1.000000 F
   F3         1.0     0.051000      0.592560      0.311870     Biso  1.000000 F
   F4         1.0     0.458440      0.407440      0.688130     Biso  1.000000 F
   F5         1.0     0.949000      0.541560      0.688130     Biso  1.000000 F
   F6         1.0     0.592560      0.051000      0.688130     Biso  1.000000 F
   F7         1.0     0.074107      0.791773      0.645203     Biso  1.000000 F
   F8         1.0     0.208227      0.282333      0.645203     Biso  1.000000 F
   F9         1.0     0.717667      0.925893      0.645203     Biso  1.000000 F
   F10        1.0     0.125107      0.740773      0.021463     Biso  1.000000 F
   F11        1.0     0.615667      0.874893      0.021463     Biso  1.000000 F
   F12        1.0     0.259227      0.384333      0.021463     Biso  1.000000 F
   F13        1.0     0.740773      0.125107      0.978537     Biso  1.000000 F
   F14        1.0     0.874893      0.615667      0.978537     Biso  1.000000 F
   F15        1.0     0.384333      0.259227      0.978537     Biso  1.000000 F
   F16        1.0     0.791773      0.074107      0.354797     Biso  1.000000 F
   F17        1.0     0.282333      0.208227      0.354797     Biso  1.000000 F
   F18        1.0     0.925893      0.717667      0.354797     Biso  1.000000 F
   F19        1.0     0.504700      0.360710      0.271470     Biso  1.000000 F
   F20        1.0     0.639290      0.143990      0.271470     Biso  1.000000 F
   F21        1.0     0.856010      0.495300      0.271470     Biso  1.000000 F
   F22        1.0     0.360710      0.504700      0.728530     Biso  1.000000 F
   F23        1.0     0.143990      0.639290      0.728530     Biso  1.000000 F
   F24        1.0     0.495300      0.856010      0.728530     Biso  1.000000 F
   F25        1.0     0.171367      0.694043      0.604803     Biso  1.000000 F
   F26        1.0     0.305957      0.477323      0.604803     Biso  1.000000 F
   F27        1.0     0.522677      0.828633      0.604803     Biso  1.000000 F
   F28        1.0     0.027377      0.838033      0.061863     Biso  1.000000 F
   F29        1.0     0.810657      0.972623      0.061863     Biso  1.000000 F
   F30        1.0     0.161967      0.189343      0.061863     Biso  1.000000 F
   F31        1.0     0.838033      0.027377      0.938137     Biso  1.000000 F
   F32        1.0     0.972623      0.810657      0.938137     Biso  1.000000 F
   F33        1.0     0.189343      0.161967      0.938137     Biso  1.000000 F
   F34        1.0     0.694043      0.171367      0.395197     Biso  1.000000 F
   F35        1.0     0.477323      0.305957      0.395197     Biso  1.000000 F
   F36        1.0     0.828633      0.522677      0.395197     Biso  1.000000 F
   H1         1.0     0.328380      0.616190      0.351620     Biso  1.000000 H
   H2         1.0     0.383810      0.712190      0.351620     Biso  1.000000 H
   H3         1.0     0.287810      0.671620      0.351620     Biso  1.000000 H
   H4         1.0     0.616190      0.328380      0.648380     Biso  1.000000 H
   H5         1.0     0.712190      0.383810      0.648380     Biso  1.000000 H
   H6         1.0     0.671620      0.287810      0.648380     Biso  1.000000 H
   H7         1.0     0.995047      0.949523      0.684953     Biso  1.000000 H
   H8         1.0     0.050477      0.045523      0.684953     Biso  1.000000 H
   H9         1.0     0.954477      0.004953      0.684953     Biso  1.000000 H
   H10        1.0     0.282857      0.661713      0.981713     Biso  1.000000 H
   H11        1.0     0.378857      0.717143      0.981713     Biso  1.000000 H
   H12        1.0     0.338287      0.621143      0.981713     Biso  1.000000 H
   H13        1.0     0.661713      0.282857      0.018287     Biso  1.000000 H
   H14        1.0     0.717143      0.378857      0.018287     Biso  1.000000 H
   H15        1.0     0.621143      0.338287      0.018287     Biso  1.000000 H
   H16        1.0     0.949523      0.995047      0.315047     Biso  1.000000 H
   H17        1.0     0.045523      0.050477      0.315047     Biso  1.000000 H
   H18        1.0     0.004953      0.954477      0.315047     Biso  1.000000 H
   H19        1.0     0.364540      0.590970      0.353740     Biso  1.000000 H
   H20        1.0     0.409030      0.773570      0.353740     Biso  1.000000 H
   H21        1.0     0.226430      0.635460      0.353740     Biso  1.000000 H
   H22        1.0     0.590970      0.364540      0.646260     Biso  1.000000 H
   H23        1.0     0.773570      0.409030      0.646260     Biso  1.000000 H
   H24        1.0     0.635460      0.226430      0.646260     Biso  1.000000 H
   H25        1.0     0.031207      0.924303      0.687073     Biso  1.000000 H
   H26        1.0     0.075697      0.106903      0.687073     Biso  1.000000 H
   H27        1.0     0.893097      0.968793      0.687073     Biso  1.000000 H
   H28        1.0     0.257637      0.697873      0.979593     Biso  1.000000 H
   H29        1.0     0.440237      0.742363      0.979593     Biso  1.000000 H
   H30        1.0     0.302127      0.559763      0.979593     Biso  1.000000 H
   H31        1.0     0.697873      0.257637      0.020407     Biso  1.000000 H
   H32        1.0     0.742363      0.440237      0.020407     Biso  1.000000 H
   H33        1.0     0.559763      0.302127      0.020407     Biso  1.000000 H
   H34        1.0     0.924303      0.031207      0.312927     Biso  1.000000 H
   H35        1.0     0.106903      0.075697      0.312927     Biso  1.000000 H
   H36        1.0     0.968793      0.893097      0.312927     Biso  1.000000 H
   H37        1.0     0.281910      0.539190      0.390300     Biso  1.000000 H
   H38        1.0     0.460810      0.742720      0.390300     Biso  1.000000 H
   H39        1.0     0.257280      0.718090      0.390300     Biso  1.000000 H
   H40        1.0     0.539190      0.281910      0.609700     Biso  1.000000 H
   H41        1.0     0.742720      0.460810      0.609700     Biso  1.000000 H
   H42        1.0     0.718090      0.257280      0.609700     Biso  1.000000 H
   H43        1.0     0.948577      0.872523      0.723633     Biso  1.000000 H
   H44        1.0     0.127477      0.076053      0.723633     Biso  1.000000 H
   H45        1.0     0.923947      0.051423      0.723633     Biso  1.000000 H
   H46        1.0     0.205857      0.615243      0.943033     Biso  1.000000 H
   H47        1.0     0.409387      0.794143      0.943033     Biso  1.000000 H
   H48        1.0     0.384757      0.590613      0.943033     Biso  1.000000 H
   H49        1.0     0.615243      0.205857      0.056967     Biso  1.000000 H
   H50        1.0     0.794143      0.409387      0.056967     Biso  1.000000 H
   H51        1.0     0.590613      0.384757      0.056967     Biso  1.000000 H
   H52        1.0     0.872523      0.948577      0.276367     Biso  1.000000 H
   H53        1.0     0.076053      0.127477      0.276367     Biso  1.000000 H
   H54        1.0     0.051423      0.923947      0.276367     Biso  1.000000 H
   H55        1.0     0.280060      0.496140      0.372090     Biso  1.000000 H
   H56        1.0     0.503860      0.783920      0.372090     Biso  1.000000 H
   H57        1.0     0.216080      0.719940      0.372090     Biso  1.000000 H
   H58        1.0     0.496140      0.280060      0.627910     Biso  1.000000 H
   H59        1.0     0.783920      0.503860      0.627910     Biso  1.000000 H
   H60        1.0     0.719940      0.216080      0.627910     Biso  1.000000 H
   H61        1.0     0.946727      0.829473      0.705423     Biso  1.000000 H
   H62        1.0     0.170527      0.117253      0.705423     Biso  1.000000 H
   H63        1.0     0.882747      0.053273      0.705423     Biso  1.000000 H
   H64        1.0     0.162807      0.613393      0.961243     Biso  1.000000 H
   H65        1.0     0.450587      0.837193      0.961243     Biso  1.000000 H
   H66        1.0     0.386607      0.549413      0.961243     Biso  1.000000 H
   H67        1.0     0.613393      0.162807      0.038757     Biso  1.000000 H
   H68        1.0     0.837193      0.450587      0.038757     Biso  1.000000 H
   H69        1.0     0.549413      0.386607      0.038757     Biso  1.000000 H
   H70        1.0     0.829473      0.946727      0.294577     Biso  1.000000 H
   H71        1.0     0.117253      0.170527      0.294577     Biso  1.000000 H
   H72        1.0     0.053273      0.882747      0.294577     Biso  1.000000 H
   H73        1.0     0.363030      0.548000      0.335770     Biso  1.000000 H
   H74        1.0     0.452000      0.815030      0.335770     Biso  1.000000 H
   H75        1.0     0.184970      0.636970      0.335770     Biso  1.000000 H
   H76        1.0     0.548000      0.363030      0.664230     Biso  1.000000 H
   H77        1.0     0.815030      0.452000      0.664230     Biso  1.000000 H
   H78        1.0     0.636970      0.184970      0.664230     Biso  1.000000 H
   H79        1.0     0.029697      0.881333      0.669103     Biso  1.000000 H
   H80        1.0     0.118667      0.148363      0.669103     Biso  1.000000 H
   H81        1.0     0.851637      0.970303      0.669103     Biso  1.000000 H
   H82        1.0     0.214667      0.696363      0.997563     Biso  1.000000 H
   H83        1.0     0.481697      0.785333      0.997563     Biso  1.000000 H
   H84        1.0     0.303637      0.518303      0.997563     Biso  1.000000 H
   H85        1.0     0.696363      0.214667      0.002437     Biso  1.000000 H
   H86        1.0     0.785333      0.481697      0.002437     Biso  1.000000 H
   H87        1.0     0.518303      0.303637      0.002437     Biso  1.000000 H
   H88        1.0     0.881333      0.029697      0.330897     Biso  1.000000 H
   H89        1.0     0.148363      0.118667      0.330897     Biso  1.000000 H
   H90        1.0     0.970303      0.851637      0.330897     Biso  1.000000 H
   H91        1.0     0.302630      0.472290      0.348970     Biso  1.000000 H
   H92        1.0     0.527710      0.830340      0.348970     Biso  1.000000 H
   H93        1.0     0.169660      0.697370      0.348970     Biso  1.000000 H
   H94        1.0     0.472290      0.302630      0.651030     Biso  1.000000 H
   H95        1.0     0.830340      0.527710      0.651030     Biso  1.000000 H
   H96        1.0     0.697370      0.169660      0.651030     Biso  1.000000 H
   H97        1.0     0.969297      0.805623      0.682303     Biso  1.000000 H
   H98        1.0     0.194377      0.163673      0.682303     Biso  1.000000 H
   H99        1.0     0.836327      0.030703      0.682303     Biso  1.000000 H
   H100       1.0     0.138957      0.635963      0.984363     Biso  1.000000 H
   H101       1.0     0.497007      0.861043      0.984363     Biso  1.000000 H
   H102       1.0     0.364037      0.502993      0.984363     Biso  1.000000 H
   H103       1.0     0.635963      0.138957      0.015637     Biso  1.000000 H
   H104       1.0     0.861043      0.497007      0.015637     Biso  1.000000 H
   H105       1.0     0.502993      0.364037      0.015637     Biso  1.000000 H
   H106       1.0     0.805623      0.969297      0.317697     Biso  1.000000 H
   H107       1.0     0.163673      0.194377      0.317697     Biso  1.000000 H
   H108       1.0     0.030703      0.836327      0.317697     Biso  1.000000 H
   H109       1.0     0.390390      0.495350      0.316240     Biso  1.000000 H
   H110       1.0     0.504650      0.895040      0.316240     Biso  1.000000 H
   H111       1.0     0.104960      0.609610      0.316240     Biso  1.000000 H
   H112       1.0     0.495350      0.390390      0.683760     Biso  1.000000 H
   H113       1.0     0.895040      0.504650      0.683760     Biso  1.000000 H
   H114       1.0     0.609610      0.104960      0.683760     Biso  1.000000 H
   H115       1.0     0.057057      0.828683      0.649573     Biso  1.000000 H
   H116       1.0     0.171317      0.228373      0.649573     Biso  1.000000 H
   H117       1.0     0.771627      0.942943      0.649573     Biso  1.000000 H
   H118       1.0     0.162017      0.723723      0.017093     Biso  1.000000 H
   H119       1.0     0.561707      0.837983      0.017093     Biso  1.000000 H
   H120       1.0     0.276277      0.438293      0.017093     Biso  1.000000 H
   H121       1.0     0.723723      0.162017      0.982907     Biso  1.000000 H
   H122       1.0     0.837983      0.561707      0.982907     Biso  1.000000 H
   H123       1.0     0.438293      0.276277      0.982907     Biso  1.000000 H
   H124       1.0     0.828683      0.057057      0.350427     Biso  1.000000 H
   H125       1.0     0.228373      0.171317      0.350427     Biso  1.000000 H
   H126       1.0     0.942943      0.771627      0.350427     Biso  1.000000 H
   H127       1.0     0.312180      0.438500      0.358140     Biso  1.000000 H
   H128       1.0     0.561500      0.873680      0.358140     Biso  1.000000 H
   H129       1.0     0.126320      0.687820      0.358140     Biso  1.000000 H
   H130       1.0     0.438500      0.312180      0.641860     Biso  1.000000 H
   H131       1.0     0.873680      0.561500      0.641860     Biso  1.000000 H
   H132       1.0     0.687820      0.126320      0.641860     Biso  1.000000 H
   H133       1.0     0.978847      0.771833      0.691473     Biso  1.000000 H
   H134       1.0     0.228167      0.207013      0.691473     Biso  1.000000 H
   H135       1.0     0.792987      0.021153      0.691473     Biso  1.000000 H
   H136       1.0     0.105167      0.645513      0.975193     Biso  1.000000 H
   H137       1.0     0.540347      0.894833      0.975193     Biso  1.000000 H
   H138       1.0     0.354487      0.459653      0.975193     Biso  1.000000 H
   H139       1.0     0.645513      0.105167      0.024807     Biso  1.000000 H
   H140       1.0     0.894833      0.540347      0.024807     Biso  1.000000 H
   H141       1.0     0.459653      0.354487      0.024807     Biso  1.000000 H
   H142       1.0     0.771833      0.978847      0.308527     Biso  1.000000 H
   H143       1.0     0.207013      0.228167      0.308527     Biso  1.000000 H
   H144       1.0     0.021153      0.792987      0.308527     Biso  1.000000 H
   H145       1.0     0.323420      0.400490      0.355200     Biso  1.000000 H
   H146       1.0     0.599510      0.922930      0.355200     Biso  1.000000 H
   H147       1.0     0.077070      0.676580      0.355200     Biso  1.000000 H
   H148       1.0     0.400490      0.323420      0.644800     Biso  1.000000 H
   H149       1.0     0.922930      0.599510      0.644800     Biso  1.000000 H
   H150       1.0     0.676580      0.077070      0.644800     Biso  1.000000 H
   H151       1.0     0.990087      0.733823      0.688533     Biso  1.000000 H
   H152       1.0     0.266177      0.256263      0.688533     Biso  1.000000 H
   H153       1.0     0.743737      0.009913      0.688533     Biso  1.000000 H
   H154       1.0     0.067157      0.656753      0.978133     Biso  1.000000 H
   H155       1.0     0.589597      0.932843      0.978133     Biso  1.000000 H
   H156       1.0     0.343247      0.410403      0.978133     Biso  1.000000 H
   H157       1.0     0.656753      0.067157      0.021867     Biso  1.000000 H
   H158       1.0     0.932843      0.589597      0.021867     Biso  1.000000 H
   H159       1.0     0.410403      0.343247      0.021867     Biso  1.000000 H
   H160       1.0     0.733823      0.990087      0.311467     Biso  1.000000 H
   H161       1.0     0.256263      0.266177      0.311467     Biso  1.000000 H
   H162       1.0     0.009913      0.743737      0.311467     Biso  1.000000 H
   H163       1.0     0.377310      0.426790      0.630530     Biso  1.000000 H
   H164       1.0     0.573210      0.950520      0.630530     Biso  1.000000 H
   H165       1.0     0.049480      0.622690      0.630530     Biso  1.000000 H
   H166       1.0     0.426790      0.377310      0.369470     Biso  1.000000 H
   H167       1.0     0.950520      0.573210      0.369470     Biso  1.000000 H
   H168       1.0     0.622690      0.049480      0.369470     Biso  1.000000 H
   H169       1.0     0.043977      0.760123      0.963863     Biso  1.000000 H
   H170       1.0     0.239877      0.283853      0.963863     Biso  1.000000 H
   H171       1.0     0.716147      0.956023      0.963863     Biso  1.000000 H
   H172       1.0     0.093457      0.710643      0.702803     Biso  1.000000 H
   H173       1.0     0.617187      0.906543      0.702803     Biso  1.000000 H
   H174       1.0     0.289357      0.382813      0.702803     Biso  1.000000 H
   H175       1.0     0.710643      0.093457      0.297197     Biso  1.000000 H
   H176       1.0     0.906543      0.617187      0.297197     Biso  1.000000 H
   H177       1.0     0.382813      0.289357      0.297197     Biso  1.000000 H
   H178       1.0     0.760123      0.043977      0.036137     Biso  1.000000 H
   H179       1.0     0.283853      0.239877      0.036137     Biso  1.000000 H
   H180       1.0     0.956023      0.716147      0.036137     Biso  1.000000 H
   H181       1.0     0.288690      0.396240      0.649320     Biso  1.000000 H
   H182       1.0     0.603760      0.892450      0.649320     Biso  1.000000 H
   H183       1.0     0.107550      0.711310      0.649320     Biso  1.000000 H
   H184       1.0     0.396240      0.288690      0.350680     Biso  1.000000 H
   H185       1.0     0.892450      0.603760      0.350680     Biso  1.000000 H
   H186       1.0     0.711310      0.107550      0.350680     Biso  1.000000 H
   H187       1.0     0.955357      0.729573      0.982653     Biso  1.000000 H
   H188       1.0     0.270427      0.225783      0.982653     Biso  1.000000 H
   H189       1.0     0.774217      0.044643      0.982653     Biso  1.000000 H
   H190       1.0     0.062907      0.622023      0.684013     Biso  1.000000 H
   H191       1.0     0.559117      0.937093      0.684013     Biso  1.000000 H
   H192       1.0     0.377977      0.440883      0.684013     Biso  1.000000 H
   H193       1.0     0.622023      0.062907      0.315987     Biso  1.000000 H
   H194       1.0     0.937093      0.559117      0.315987     Biso  1.000000 H
   H195       1.0     0.440883      0.377977      0.315987     Biso  1.000000 H
   H196       1.0     0.729573      0.955357      0.017347     Biso  1.000000 H
   H197       1.0     0.225783      0.270427      0.017347     Biso  1.000000 H
   H198       1.0     0.044643      0.774217      0.017347     Biso  1.000000 H
   H199       1.0     0.286060      0.423840      0.611510     Biso  1.000000 H
   H200       1.0     0.576160      0.862220      0.611510     Biso  1.000000 H
   H201       1.0     0.137780      0.713940      0.611510     Biso  1.000000 H
   H202       1.0     0.423840      0.286060      0.388490     Biso  1.000000 H
   H203       1.0     0.862220      0.576160      0.388490     Biso  1.000000 H
   H204       1.0     0.713940      0.137780      0.388490     Biso  1.000000 H
   H205       1.0     0.952727      0.757173      0.944843     Biso  1.000000 H
   H206       1.0     0.242827      0.195553      0.944843     Biso  1.000000 H
   H207       1.0     0.804447      0.047273      0.944843     Biso  1.000000 H
   H208       1.0     0.090507      0.619393      0.721823     Biso  1.000000 H
   H209       1.0     0.528887      0.909493      0.721823     Biso  1.000000 H
   H210       1.0     0.380607      0.471113      0.721823     Biso  1.000000 H
   H211       1.0     0.619393      0.090507      0.278177     Biso  1.000000 H
   H212       1.0     0.909493      0.528887      0.278177     Biso  1.000000 H
   H213       1.0     0.471113      0.380607      0.278177     Biso  1.000000 H
   H214       1.0     0.757173      0.952727      0.055157     Biso  1.000000 H
   H215       1.0     0.195553      0.242827      0.055157     Biso  1.000000 H
   H216       1.0     0.047273      0.804447      0.055157     Biso  1.000000 H
   H217       1.0     0.374430      0.454310      0.592890     Biso  1.000000 H
   H218       1.0     0.545690      0.920120      0.592890     Biso  1.000000 H
   H219       1.0     0.079880      0.625570      0.592890     Biso  1.000000 H
   H220       1.0     0.454310      0.374430      0.407110     Biso  1.000000 H
   H221       1.0     0.920120      0.545690      0.407110     Biso  1.000000 H
   H222       1.0     0.625570      0.079880      0.407110     Biso  1.000000 H
   H223       1.0     0.041097      0.787643      0.926223     Biso  1.000000 H
   H224       1.0     0.212357      0.253453      0.926223     Biso  1.000000 H
   H225       1.0     0.746547      0.958903      0.926223     Biso  1.000000 H
   H226       1.0     0.120977      0.707763      0.740443     Biso  1.000000 H
   H227       1.0     0.586787      0.879023      0.740443     Biso  1.000000 H
   H228       1.0     0.292237      0.413213      0.740443     Biso  1.000000 H
   H229       1.0     0.707763      0.120977      0.259557     Biso  1.000000 H
   H230       1.0     0.879023      0.586787      0.259557     Biso  1.000000 H
   H231       1.0     0.413213      0.292237      0.259557     Biso  1.000000 H
   H232       1.0     0.787643      0.041097      0.073777     Biso  1.000000 H
   H233       1.0     0.253453      0.212357      0.073777     Biso  1.000000 H
   H234       1.0     0.958903      0.746547      0.073777     Biso  1.000000 H
   H235       1.0     0.348690      0.443950      0.547150     Biso  1.000000 H
   H236       1.0     0.556050      0.904740      0.547150     Biso  1.000000 H
   H237       1.0     0.095260      0.651310      0.547150     Biso  1.000000 H
   H238       1.0     0.443950      0.348690      0.452850     Biso  1.000000 H
   H239       1.0     0.904740      0.556050      0.452850     Biso  1.000000 H
   H240       1.0     0.651310      0.095260      0.452850     Biso  1.000000 H
   H241       1.0     0.015357      0.777283      0.880483     Biso  1.000000 H
   H242       1.0     0.222717      0.238073      0.880483     Biso  1.000000 H
   H243       1.0     0.761927      0.984643      0.880483     Biso  1.000000 H
   H244       1.0     0.110617      0.682023      0.786183     Biso  1.000000 H
   H245       1.0     0.571407      0.889383      0.786183     Biso  1.000000 H
   H246       1.0     0.317977      0.428593      0.786183     Biso  1.000000 H
   H247       1.0     0.682023      0.110617      0.213817     Biso  1.000000 H
   H248       1.0     0.889383      0.571407      0.213817     Biso  1.000000 H
   H249       1.0     0.428593      0.317977      0.213817     Biso  1.000000 H
   H250       1.0     0.777283      0.015357      0.119517     Biso  1.000000 H
   H251       1.0     0.238073      0.222717      0.119517     Biso  1.000000 H
   H252       1.0     0.984643      0.761927      0.119517     Biso  1.000000 H
   H253       1.0     0.345400      0.471130      0.509200     Biso  1.000000 H
   H254       1.0     0.528870      0.874270      0.509200     Biso  1.000000 H
   H255       1.0     0.125730      0.654600      0.509200     Biso  1.000000 H
   H256       1.0     0.471130      0.345400      0.490800     Biso  1.000000 H
   H257       1.0     0.874270      0.528870      0.490800     Biso  1.000000 H
   H258       1.0     0.654600      0.125730      0.490800     Biso  1.000000 H
   H259       1.0     0.012067      0.804463      0.842533     Biso  1.000000 H
   H260       1.0     0.195537      0.207603      0.842533     Biso  1.000000 H
   H261       1.0     0.792397      0.987933      0.842533     Biso  1.000000 H
   H262       1.0     0.137797      0.678733      0.824133     Biso  1.000000 H
   H263       1.0     0.540937      0.862203      0.824133     Biso  1.000000 H
   H264       1.0     0.321267      0.459063      0.824133     Biso  1.000000 H
   H265       1.0     0.678733      0.137797      0.175867     Biso  1.000000 H
   H266       1.0     0.862203      0.540937      0.175867     Biso  1.000000 H
   H267       1.0     0.459063      0.321267      0.175867     Biso  1.000000 H
   H268       1.0     0.804463      0.012067      0.157467     Biso  1.000000 H
   H269       1.0     0.207603      0.195537      0.157467     Biso  1.000000 H
   H270       1.0     0.987933      0.792397      0.157467     Biso  1.000000 H
   H271       1.0     0.304240      0.503750      0.561410     Biso  1.000000 H
   H272       1.0     0.496250      0.800490      0.561410     Biso  1.000000 H
   H273       1.0     0.199510      0.695760      0.561410     Biso  1.000000 H
   H274       1.0     0.503750      0.304240      0.438590     Biso  1.000000 H
   H275       1.0     0.800490      0.496250      0.438590     Biso  1.000000 H
   H276       1.0     0.695760      0.199510      0.438590     Biso  1.000000 H
   H277       1.0     0.970907      0.837083      0.894743     Biso  1.000000 H
   H278       1.0     0.162917      0.133823      0.894743     Biso  1.000000 H
   H279       1.0     0.866177      0.029093      0.894743     Biso  1.000000 H
   H280       1.0     0.170417      0.637573      0.771923     Biso  1.000000 H
   H281       1.0     0.467157      0.829583      0.771923     Biso  1.000000 H
   H282       1.0     0.362427      0.532843      0.771923     Biso  1.000000 H
   H283       1.0     0.637573      0.170417      0.228077     Biso  1.000000 H
   H284       1.0     0.829583      0.467157      0.228077     Biso  1.000000 H
   H285       1.0     0.532843      0.362427      0.228077     Biso  1.000000 H
   H286       1.0     0.837083      0.970907      0.105257     Biso  1.000000 H
   H287       1.0     0.133823      0.162917      0.105257     Biso  1.000000 H
   H288       1.0     0.029093      0.866177      0.105257     Biso  1.000000 H
   H289       1.0     0.351520      0.507150      0.483450     Biso  1.000000 H
   H290       1.0     0.492850      0.844370      0.483450     Biso  1.000000 H
   H291       1.0     0.155630      0.648480      0.483450     Biso  1.000000 H
   H292       1.0     0.507150      0.351520      0.516550     Biso  1.000000 H
   H293       1.0     0.844370      0.492850      0.516550     Biso  1.000000 H
   H294       1.0     0.648480      0.155630      0.516550     Biso  1.000000 H
   H295       1.0     0.018187      0.840483      0.816783     Biso  1.000000 H
   H296       1.0     0.159517      0.177703      0.816783     Biso  1.000000 H
   H297       1.0     0.822297      0.981813      0.816783     Biso  1.000000 H
   H298       1.0     0.173817      0.684853      0.849883     Biso  1.000000 H
   H299       1.0     0.511037      0.826183      0.849883     Biso  1.000000 H
   H300       1.0     0.315147      0.488963      0.849883     Biso  1.000000 H
   H301       1.0     0.684853      0.173817      0.150117     Biso  1.000000 H
   H302       1.0     0.826183      0.511037      0.150117     Biso  1.000000 H
   H303       1.0     0.488963      0.315147      0.150117     Biso  1.000000 H
   H304       1.0     0.840483      0.018187      0.183217     Biso  1.000000 H
   H305       1.0     0.177703      0.159517      0.183217     Biso  1.000000 H
   H306       1.0     0.981813      0.822297      0.183217     Biso  1.000000 H
   H307       1.0     0.329990      0.618240      0.453370     Biso  1.000000 H
   H308       1.0     0.381760      0.711750      0.453370     Biso  1.000000 H
   H309       1.0     0.288250      0.670010      0.453370     Biso  1.000000 H
   H310       1.0     0.618240      0.329990      0.546630     Biso  1.000000 H
   H311       1.0     0.711750      0.381760      0.546630     Biso  1.000000 H
   H312       1.0     0.670010      0.288250      0.546630     Biso  1.000000 H
   H313       1.0     0.996657      0.951573      0.786703     Biso  1.000000 H
   H314       1.0     0.048427      0.045083      0.786703     Biso  1.000000 H
   H315       1.0     0.954917      0.003343      0.786703     Biso  1.000000 H
   H316       1.0     0.284907      0.663323      0.879963     Biso  1.000000 H
   H317       1.0     0.378417      0.715093      0.879963     Biso  1.000000 H
   H318       1.0     0.336677      0.621583      0.879963     Biso  1.000000 H
   H319       1.0     0.663323      0.284907      0.120037     Biso  1.000000 H
   H320       1.0     0.715093      0.378417      0.120037     Biso  1.000000 H
   H321       1.0     0.621583      0.336677      0.120037     Biso  1.000000 H
   H322       1.0     0.951573      0.996657      0.213297     Biso  1.000000 H
   H323       1.0     0.045083      0.048427      0.213297     Biso  1.000000 H
   H324       1.0     0.003343      0.954917      0.213297     Biso  1.000000 H
   H325       1.0     0.292020      0.563750      0.459000     Biso  1.000000 H
   H326       1.0     0.436250      0.728270      0.459000     Biso  1.000000 H
   H327       1.0     0.271730      0.707980      0.459000     Biso  1.000000 H
   H328       1.0     0.563750      0.292020      0.541000     Biso  1.000000 H
   H329       1.0     0.728270      0.436250      0.541000     Biso  1.000000 H
   H330       1.0     0.707980      0.271730      0.541000     Biso  1.000000 H
   H331       1.0     0.958687      0.897083      0.792333     Biso  1.000000 H
   H332       1.0     0.102917      0.061603      0.792333     Biso  1.000000 H
   H333       1.0     0.938397      0.041313      0.792333     Biso  1.000000 H
   H334       1.0     0.230417      0.625353      0.874333     Biso  1.000000 H
   H335       1.0     0.394937      0.769583      0.874333     Biso  1.000000 H
   H336       1.0     0.374647      0.605063      0.874333     Biso  1.000000 H
   H337       1.0     0.625353      0.230417      0.125667     Biso  1.000000 H
   H338       1.0     0.769583      0.394937      0.125667     Biso  1.000000 H
   H339       1.0     0.605063      0.374647      0.125667     Biso  1.000000 H
   H340       1.0     0.897083      0.958687      0.207667     Biso  1.000000 H
   H341       1.0     0.061603      0.102917      0.207667     Biso  1.000000 H
   H342       1.0     0.041313      0.938397      0.207667     Biso  1.000000 H
   H343       1.0     0.295490      0.529810      0.489320     Biso  1.000000 H
   H344       1.0     0.470190      0.765680      0.489320     Biso  1.000000 H
   H345       1.0     0.234320      0.704510      0.489320     Biso  1.000000 H
   H346       1.0     0.529810      0.295490      0.510680     Biso  1.000000 H
   H347       1.0     0.765680      0.470190      0.510680     Biso  1.000000 H
   H348       1.0     0.704510      0.234320      0.510680     Biso  1.000000 H
   H349       1.0     0.962157      0.863143      0.822653     Biso  1.000000 H
   H350       1.0     0.136857      0.099013      0.822653     Biso  1.000000 H
   H351       1.0     0.900987      0.037843      0.822653     Biso  1.000000 H
   H352       1.0     0.196477      0.628823      0.844013     Biso  1.000000 H
   H353       1.0     0.432347      0.803523      0.844013     Biso  1.000000 H
   H354       1.0     0.371177      0.567653      0.844013     Biso  1.000000 H
   H355       1.0     0.628823      0.196477      0.155987     Biso  1.000000 H
   H356       1.0     0.803523      0.432347      0.155987     Biso  1.000000 H
   H357       1.0     0.567653      0.371177      0.155987     Biso  1.000000 H
   H358       1.0     0.863143      0.962157      0.177347     Biso  1.000000 H
   H359       1.0     0.099013      0.136857      0.177347     Biso  1.000000 H
   H360       1.0     0.037843      0.900987      0.177347     Biso  1.000000 H
   H361       1.0     0.364600      0.573760      0.413570     Biso  1.000000 H
   H362       1.0     0.426240      0.790840      0.413570     Biso  1.000000 H
   H363       1.0     0.209160      0.635400      0.413570     Biso  1.000000 H
   H364       1.0     0.573760      0.364600      0.586430     Biso  1.000000 H
   H365       1.0     0.790840      0.426240      0.586430     Biso  1.000000 H
   H366       1.0     0.635400      0.209160      0.586430     Biso  1.000000 H
   H367       1.0     0.031267      0.907093      0.746903     Biso  1.000000 H
   H368       1.0     0.092907      0.124173      0.746903     Biso  1.000000 H
   H369       1.0     0.875827      0.968733      0.746903     Biso  1.000000 H
   H370       1.0     0.240427      0.697933      0.919763     Biso  1.000000 H
   H371       1.0     0.457507      0.759573      0.919763     Biso  1.000000 H
   H372       1.0     0.302067      0.542493      0.919763     Biso  1.000000 H
   H373       1.0     0.697933      0.240427      0.080237     Biso  1.000000 H
   H374       1.0     0.759573      0.457507      0.080237     Biso  1.000000 H
   H375       1.0     0.542493      0.302067      0.080237     Biso  1.000000 H
   H376       1.0     0.907093      0.031267      0.253097     Biso  1.000000 H
   H377       1.0     0.124173      0.092907      0.253097     Biso  1.000000 H
   H378       1.0     0.968733      0.875827      0.253097     Biso  1.000000 H
   H379       1.0     0.367700      0.539170      0.443450     Biso  1.000000 H
   H380       1.0     0.460830      0.828530      0.443450     Biso  1.000000 H
   H381       1.0     0.171470      0.632300      0.443450     Biso  1.000000 H
   H382       1.0     0.539170      0.367700      0.556550     Biso  1.000000 H
   H383       1.0     0.828530      0.460830      0.556550     Biso  1.000000 H
   H384       1.0     0.632300      0.171470      0.556550     Biso  1.000000 H
   H385       1.0     0.034367      0.872503      0.776783     Biso  1.000000 H
   H386       1.0     0.127497      0.161863      0.776783     Biso  1.000000 H
   H387       1.0     0.838137      0.965633      0.776783     Biso  1.000000 H
   H388       1.0     0.205837      0.701033      0.889883     Biso  1.000000 H
   H389       1.0     0.495197      0.794163      0.889883     Biso  1.000000 H
   H390       1.0     0.298967      0.504803      0.889883     Biso  1.000000 H
   H391       1.0     0.701033      0.205837      0.110117     Biso  1.000000 H
   H392       1.0     0.794163      0.495197      0.110117     Biso  1.000000 H
   H393       1.0     0.504803      0.298967      0.110117     Biso  1.000000 H
   H394       1.0     0.872503      0.034367      0.223217     Biso  1.000000 H
   H395       1.0     0.161863      0.127497      0.223217     Biso  1.000000 H
   H396       1.0     0.965633      0.838137      0.223217     Biso  1.000000 H
   H397       1.0     0.353000      0.371100      0.624200     Biso  1.000000 H
   H398       1.0     0.628900      0.981900      0.624200     Biso  1.000000 H
   H399       1.0     0.018100      0.647000      0.624200     Biso  1.000000 H
   H400       1.0     0.371100      0.353000      0.375800     Biso  1.000000 H
   H401       1.0     0.981900      0.628900      0.375800     Biso  1.000000 H
   H402       1.0     0.647000      0.018100      0.375800     Biso  1.000000 H
   H403       1.0     0.019667      0.704433      0.957533     Biso  1.000000 H
   H404       1.0     0.295567      0.315233      0.957533     Biso  1.000000 H
   H405       1.0     0.684767      0.980333      0.957533     Biso  1.000000 H
   H406       1.0     0.037767      0.686333      0.709133     Biso  1.000000 H
   H407       1.0     0.648567      0.962233      0.709133     Biso  1.000000 H
   H408       1.0     0.313667      0.351433      0.709133     Biso  1.000000 H
   H409       1.0     0.686333      0.037767      0.290867     Biso  1.000000 H
   H410       1.0     0.962233      0.648567      0.290867     Biso  1.000000 H
   H411       1.0     0.351433      0.313667      0.290867     Biso  1.000000 H
   H412       1.0     0.704433      0.019667      0.042467     Biso  1.000000 H
   H413       1.0     0.315233      0.295567      0.042467     Biso  1.000000 H
   H414       1.0     0.980333      0.684767      0.042467     Biso  1.000000 H
   H415       1.0     0.391550      0.360240      0.623600     Biso  1.000000 H
   H416       1.0     0.639760      0.031310      0.623600     Biso  1.000000 H
   H417       1.0     0.968690      0.608450      0.623600     Biso  1.000000 H
   H418       1.0     0.360240      0.391550      0.376400     Biso  1.000000 H
   H419       1.0     0.031310      0.639760      0.376400     Biso  1.000000 H
   H420       1.0     0.608450      0.968690      0.376400     Biso  1.000000 H
   H421       1.0     0.058217      0.693573      0.956933     Biso  1.000000 H
   H422       1.0     0.306427      0.364643      0.956933     Biso  1.000000 H
   H423       1.0     0.635357      0.941783      0.956933     Biso  1.000000 H
   H424       1.0     0.026907      0.724883      0.709733     Biso  1.000000 H
   H425       1.0     0.697977      0.973093      0.709733     Biso  1.000000 H
   H426       1.0     0.275117      0.302023      0.709733     Biso  1.000000 H
   H427       1.0     0.724883      0.026907      0.290267     Biso  1.000000 H
   H428       1.0     0.973093      0.697977      0.290267     Biso  1.000000 H
   H429       1.0     0.302023      0.275117      0.290267     Biso  1.000000 H
   H430       1.0     0.693573      0.058217      0.043067     Biso  1.000000 H
   H431       1.0     0.364643      0.306427      0.043067     Biso  1.000000 H
   H432       1.0     0.941783      0.635357      0.043067     Biso  1.000000 H
   H433       1.0     0.407190      0.381430      0.708830     Biso  1.000000 H
   H434       1.0     0.618570      0.025760      0.708830     Biso  1.000000 H
   H435       1.0     0.974240      0.592810      0.708830     Biso  1.000000 H
   H436       1.0     0.381430      0.407190      0.291170     Biso  1.000000 H
   H437       1.0     0.025760      0.618570      0.291170     Biso  1.000000 H
   H438       1.0     0.592810      0.974240      0.291170     Biso  1.000000 H
   H439       1.0     0.073857      0.714763      0.042163     Biso  1.000000 H
   H440       1.0     0.285237      0.359093      0.042163     Biso  1.000000 H
   H441       1.0     0.640907      0.926143      0.042163     Biso  1.000000 H
   H442       1.0     0.048097      0.740523      0.624503     Biso  1.000000 H
   H443       1.0     0.692427      0.951903      0.624503     Biso  1.000000 H
   H444       1.0     0.259477      0.307573      0.624503     Biso  1.000000 H
   H445       1.0     0.740523      0.048097      0.375497     Biso  1.000000 H
   H446       1.0     0.951903      0.692427      0.375497     Biso  1.000000 H
   H447       1.0     0.307573      0.259477      0.375497     Biso  1.000000 H
   H448       1.0     0.714763      0.073857      0.957837     Biso  1.000000 H
   H449       1.0     0.359093      0.285237      0.957837     Biso  1.000000 H
   H450       1.0     0.926143      0.640907      0.957837     Biso  1.000000 H
   H451       1.0     0.368970      0.392270      0.709750     Biso  1.000000 H
   H452       1.0     0.607730      0.976700      0.709750     Biso  1.000000 H
   H453       1.0     0.023300      0.631030      0.709750     Biso  1.000000 H
   H454       1.0     0.392270      0.368970      0.290250     Biso  1.000000 H
   H455       1.0     0.976700      0.607730      0.290250     Biso  1.000000 H
   H456       1.0     0.631030      0.023300      0.290250     Biso  1.000000 H
   H457       1.0     0.035637      0.725603      0.043083     Biso  1.000000 H
   H458       1.0     0.274397      0.310033      0.043083     Biso  1.000000 H
   H459       1.0     0.689967      0.964363      0.043083     Biso  1.000000 H
   H460       1.0     0.058937      0.702303      0.623583     Biso  1.000000 H
   H461       1.0     0.643367      0.941063      0.623583     Biso  1.000000 H
   H462       1.0     0.297697      0.356633      0.623583     Biso  1.000000 H
   H463       1.0     0.702303      0.058937      0.376417     Biso  1.000000 H
   H464       1.0     0.941063      0.643367      0.376417     Biso  1.000000 H
   H465       1.0     0.356633      0.297697      0.376417     Biso  1.000000 H
   H466       1.0     0.725603      0.035637      0.956917     Biso  1.000000 H
   H467       1.0     0.310033      0.274397      0.956917     Biso  1.000000 H
   H468       1.0     0.964363      0.689967      0.956917     Biso  1.000000 H
   H469       1.0     0.333333      0.666667      0.981050     Biso  1.000000 H
   H470       1.0     0.666667      0.333333      0.018950     Biso  1.000000 H
   H471       1.0     0.000000      0.000000      0.314383     Biso  1.000000 H
   H472       1.0     0.333333      0.666667      0.352283     Biso  1.000000 H
   H473       1.0     0.666667      0.333333      0.647717     Biso  1.000000 H
   H474       1.0     0.000000      0.000000      0.685617     Biso  1.000000 H
   H475       1.0     0.333333      0.666667      0.881340     Biso  1.000000 H
   H476       1.0     0.666667      0.333333      0.118660     Biso  1.000000 H
   H477       1.0     0.000000      0.000000      0.214673     Biso  1.000000 H
   H478       1.0     0.333333      0.666667      0.451993     Biso  1.000000 H
   H479       1.0     0.666667      0.333333      0.548007     Biso  1.000000 H
   H480       1.0     0.000000      0.000000      0.785327     Biso  1.000000 H
