#======================================================================

# CRYSTAL DATA

#----------------------------------------------------------------------

data_VESTA_phase_1


_chemical_name_common                  ''
_cell_length_a                         49.35690
_cell_length_b                         111.45200
_cell_length_c                         36.46580
_cell_angle_alpha                      90
_cell_angle_beta                       90
_cell_angle_gamma                      90
_space_group_name_H-M_alt              'P 1'
_space_group_IT_number                 1

loop_
_space_group_symop_operation_xyz
   'x, y, z'

loop_
   _atom_site_label
   _atom_site_occupancy
   _atom_site_fract_x
   _atom_site_fract_y
   _atom_site_fract_z
   _atom_site_adp_type
   _atom_site_B_iso_or_equiv
   _atom_site_type_symbol
   C1         1.0     0.223420      0.639480      0.019430     Biso  1.000000 C
   C2         1.0     0.776580      0.360520      0.980570     Biso  1.000000 C
   C3         1.0     0.776580      0.360520      0.019430     Biso  1.000000 C
   C4         1.0     0.223420      0.639480      0.980570     Biso  1.000000 C
   C5         1.0     0.276580      0.139480      0.980570     Biso  1.000000 C
   C6         1.0     0.723420      0.860520      0.019430     Biso  1.000000 C
   C7         1.0     0.723420      0.860520      0.980570     Biso  1.000000 C
   C8         1.0     0.276580      0.139480      0.019430     Biso  1.000000 C
   C9         1.0     0.723420      0.139480      0.519430     Biso  1.000000 C
   C10        1.0     0.276580      0.860520      0.480570     Biso  1.000000 C
   C11        1.0     0.276580      0.860520      0.519430     Biso  1.000000 C
   C12        1.0     0.723420      0.139480      0.480570     Biso  1.000000 C
   C13        1.0     0.776580      0.639480      0.480570     Biso  1.000000 C
   C14        1.0     0.223420      0.360520      0.519430     Biso  1.000000 C
   C15        1.0     0.223420      0.360520      0.480570     Biso  1.000000 C
   C16        1.0     0.776580      0.639480      0.519430     Biso  1.000000 C
   C17        1.0     0.271100      0.644590      0.019500     Biso  1.000000 C
   C18        1.0     0.728900      0.355410      0.980500     Biso  1.000000 C
   C19        1.0     0.728900      0.355410      0.019500     Biso  1.000000 C
   C20        1.0     0.271100      0.644590      0.980500     Biso  1.000000 C
   C21        1.0     0.228900      0.144590      0.980500     Biso  1.000000 C
   C22        1.0     0.771100      0.855410      0.019500     Biso  1.000000 C
   C23        1.0     0.771100      0.855410      0.980500     Biso  1.000000 C
   C24        1.0     0.228900      0.144590      0.019500     Biso  1.000000 C
   C25        1.0     0.771100      0.144590      0.519500     Biso  1.000000 C
   C26        1.0     0.228900      0.855410      0.480500     Biso  1.000000 C
   C27        1.0     0.228900      0.855410      0.519500     Biso  1.000000 C
   C28        1.0     0.771100      0.144590      0.480500     Biso  1.000000 C
   C29        1.0     0.728900      0.644590      0.480500     Biso  1.000000 C
   C30        1.0     0.271100      0.355410      0.519500     Biso  1.000000 C
   C31        1.0     0.271100      0.355410      0.480500     Biso  1.000000 C
   C32        1.0     0.728900      0.644590      0.519500     Biso  1.000000 C
   C33        1.0     0.247150      0.641900      0.038760     Biso  1.000000 C
   C34        1.0     0.752850      0.358100      0.961240     Biso  1.000000 C
   C35        1.0     0.752850      0.358100      0.038760     Biso  1.000000 C
   C36        1.0     0.247150      0.641900      0.961240     Biso  1.000000 C
   C37        1.0     0.252850      0.141900      0.961240     Biso  1.000000 C
   C38        1.0     0.747150      0.858100      0.038760     Biso  1.000000 C
   C39        1.0     0.747150      0.858100      0.961240     Biso  1.000000 C
   C40        1.0     0.252850      0.141900      0.038760     Biso  1.000000 C
   C41        1.0     0.747150      0.141900      0.538760     Biso  1.000000 C
   C42        1.0     0.252850      0.858100      0.461240     Biso  1.000000 C
   C43        1.0     0.252850      0.858100      0.538760     Biso  1.000000 C
   C44        1.0     0.747150      0.141900      0.461240     Biso  1.000000 C
   C45        1.0     0.752850      0.641900      0.461240     Biso  1.000000 C
   C46        1.0     0.247150      0.358100      0.538760     Biso  1.000000 C
   C47        1.0     0.247150      0.358100      0.461240     Biso  1.000000 C
   C48        1.0     0.752850      0.641900      0.538760     Biso  1.000000 C
   C49        1.0     0.294590      0.649050      0.040510     Biso  1.000000 C
   C50        1.0     0.705410      0.350950      0.959490     Biso  1.000000 C
   C51        1.0     0.705410      0.350950      0.040510     Biso  1.000000 C
   C52        1.0     0.294590      0.649050      0.959490     Biso  1.000000 C
   C53        1.0     0.205410      0.149050      0.959490     Biso  1.000000 C
   C54        1.0     0.794590      0.850950      0.040510     Biso  1.000000 C
   C55        1.0     0.794590      0.850950      0.959490     Biso  1.000000 C
   C56        1.0     0.205410      0.149050      0.040510     Biso  1.000000 C
   C57        1.0     0.794590      0.149050      0.540510     Biso  1.000000 C
   C58        1.0     0.205410      0.850950      0.459490     Biso  1.000000 C
   C59        1.0     0.205410      0.850950      0.540510     Biso  1.000000 C
   C60        1.0     0.794590      0.149050      0.459490     Biso  1.000000 C
   C61        1.0     0.705410      0.649050      0.459490     Biso  1.000000 C
   C62        1.0     0.294590      0.350950      0.540510     Biso  1.000000 C
   C63        1.0     0.294590      0.350950      0.459490     Biso  1.000000 C
   C64        1.0     0.705410      0.649050      0.540510     Biso  1.000000 C
   C65        1.0     0.339350      0.658070      0.079710     Biso  1.000000 C
   C66        1.0     0.660650      0.341930      0.920290     Biso  1.000000 C
   C67        1.0     0.660650      0.341930      0.079710     Biso  1.000000 C
   C68        1.0     0.339350      0.658070      0.920290     Biso  1.000000 C
   C69        1.0     0.160650      0.158070      0.920290     Biso  1.000000 C
   C70        1.0     0.839350      0.841930      0.079710     Biso  1.000000 C
   C71        1.0     0.839350      0.841930      0.920290     Biso  1.000000 C
   C72        1.0     0.160650      0.158070      0.079710     Biso  1.000000 C
   C73        1.0     0.839350      0.158070      0.579710     Biso  1.000000 C
   C74        1.0     0.160650      0.841930      0.420290     Biso  1.000000 C
   C75        1.0     0.160650      0.841930      0.579710     Biso  1.000000 C
   C76        1.0     0.839350      0.158070      0.420290     Biso  1.000000 C
   C77        1.0     0.660650      0.658070      0.420290     Biso  1.000000 C
   C78        1.0     0.339350      0.341930      0.579710     Biso  1.000000 C
   C79        1.0     0.339350      0.341930      0.420290     Biso  1.000000 C
   C80        1.0     0.660650      0.658070      0.579710     Biso  1.000000 C
   C81        1.0     0.363050      0.662890      0.099710     Biso  1.000000 C
   C82        1.0     0.636950      0.337110      0.900290     Biso  1.000000 C
   C83        1.0     0.636950      0.337110      0.099710     Biso  1.000000 C
   C84        1.0     0.363050      0.662890      0.900290     Biso  1.000000 C
   C85        1.0     0.136950      0.162890      0.900290     Biso  1.000000 C
   C86        1.0     0.863050      0.837110      0.099710     Biso  1.000000 C
   C87        1.0     0.863050      0.837110      0.900290     Biso  1.000000 C
   C88        1.0     0.136950      0.162890      0.099710     Biso  1.000000 C
   C89        1.0     0.863050      0.162890      0.599710     Biso  1.000000 C
   C90        1.0     0.136950      0.837110      0.400290     Biso  1.000000 C
   C91        1.0     0.136950      0.837110      0.599710     Biso  1.000000 C
   C92        1.0     0.863050      0.162890      0.400290     Biso  1.000000 C
   C93        1.0     0.636950      0.662890      0.400290     Biso  1.000000 C
   C94        1.0     0.363050      0.337110      0.599710     Biso  1.000000 C
   C95        1.0     0.363050      0.337110      0.400290     Biso  1.000000 C
   C96        1.0     0.636950      0.662890      0.599710     Biso  1.000000 C
   C97        1.0     0.480400      0.714790      0.229620     Biso  1.000000 C
   C98        1.0     0.519600      0.285210      0.770380     Biso  1.000000 C
   C99        1.0     0.519600      0.285210      0.229620     Biso  1.000000 C
   C100       1.0     0.480400      0.714790      0.770380     Biso  1.000000 C
   C101       1.0     0.019600      0.214790      0.770380     Biso  1.000000 C
   C102       1.0     0.980400      0.785210      0.229620     Biso  1.000000 C
   C103       1.0     0.980400      0.785210      0.770380     Biso  1.000000 C
   C104       1.0     0.019600      0.214790      0.229620     Biso  1.000000 C
   C105       1.0     0.980400      0.214790      0.729620     Biso  1.000000 C
   C106       1.0     0.019600      0.785210      0.270380     Biso  1.000000 C
   C107       1.0     0.019600      0.785210      0.729620     Biso  1.000000 C
   C108       1.0     0.980400      0.214790      0.270380     Biso  1.000000 C
   C109       1.0     0.519600      0.714790      0.270380     Biso  1.000000 C
   C110       1.0     0.480400      0.285210      0.729620     Biso  1.000000 C
   C111       1.0     0.480400      0.285210      0.270380     Biso  1.000000 C
   C112       1.0     0.519600      0.714790      0.729620     Biso  1.000000 C
   C113       1.0     0.017220      0.508660      0.226480     Biso  1.000000 C
   C114       1.0     0.982780      0.491340      0.773520     Biso  1.000000 C
   C115       1.0     0.982780      0.491340      0.226480     Biso  1.000000 C
   C116       1.0     0.017220      0.508660      0.773520     Biso  1.000000 C
   C117       1.0     0.482780      0.008660      0.773520     Biso  1.000000 C
   C118       1.0     0.517220      0.991340      0.226480     Biso  1.000000 C
   C119       1.0     0.517220      0.991340      0.773520     Biso  1.000000 C
   C120       1.0     0.482780      0.008660      0.226480     Biso  1.000000 C
   C121       1.0     0.517220      0.008660      0.726480     Biso  1.000000 C
   C122       1.0     0.482780      0.991340      0.273520     Biso  1.000000 C
   C123       1.0     0.482780      0.991340      0.726480     Biso  1.000000 C
   C124       1.0     0.517220      0.008660      0.273520     Biso  1.000000 C
   C125       1.0     0.982780      0.508660      0.273520     Biso  1.000000 C
   C126       1.0     0.017220      0.491340      0.726480     Biso  1.000000 C
   C127       1.0     0.017220      0.491340      0.273520     Biso  1.000000 C
   C128       1.0     0.982780      0.508660      0.726480     Biso  1.000000 C
   C129       1.0     0.045870      0.526540      0.186850     Biso  1.000000 C
   C130       1.0     0.954130      0.473460      0.813150     Biso  1.000000 C
   C131       1.0     0.954130      0.473460      0.186850     Biso  1.000000 C
   C132       1.0     0.045870      0.526540      0.813150     Biso  1.000000 C
   C133       1.0     0.454130      0.026540      0.813150     Biso  1.000000 C
   C134       1.0     0.545870      0.973460      0.186850     Biso  1.000000 C
   C135       1.0     0.545870      0.973460      0.813150     Biso  1.000000 C
   C136       1.0     0.454130      0.026540      0.186850     Biso  1.000000 C
   C137       1.0     0.545870      0.026540      0.686850     Biso  1.000000 C
   C138       1.0     0.454130      0.973460      0.313150     Biso  1.000000 C
   C139       1.0     0.454130      0.973460      0.686850     Biso  1.000000 C
   C140       1.0     0.545870      0.026540      0.313150     Biso  1.000000 C
   C141       1.0     0.954130      0.526540      0.313150     Biso  1.000000 C
   C142       1.0     0.045870      0.473460      0.686850     Biso  1.000000 C
   C143       1.0     0.045870      0.473460      0.313150     Biso  1.000000 C
   C144       1.0     0.954130      0.526540      0.686850     Biso  1.000000 C
   C145       1.0     0.060500      0.536050      0.166370     Biso  1.000000 C
   C146       1.0     0.939500      0.463950      0.833630     Biso  1.000000 C
   C147       1.0     0.939500      0.463950      0.166370     Biso  1.000000 C
   C148       1.0     0.060500      0.536050      0.833630     Biso  1.000000 C
   C149       1.0     0.439500      0.036050      0.833630     Biso  1.000000 C
   C150       1.0     0.560500      0.963950      0.166370     Biso  1.000000 C
   C151       1.0     0.560500      0.963950      0.833630     Biso  1.000000 C
   C152       1.0     0.439500      0.036050      0.166370     Biso  1.000000 C
   C153       1.0     0.560500      0.036050      0.666370     Biso  1.000000 C
   C154       1.0     0.439500      0.963950      0.333630     Biso  1.000000 C
   C155       1.0     0.439500      0.963950      0.666370     Biso  1.000000 C
   C156       1.0     0.560500      0.036050      0.333630     Biso  1.000000 C
   C157       1.0     0.939500      0.536050      0.333630     Biso  1.000000 C
   C158       1.0     0.060500      0.463950      0.666370     Biso  1.000000 C
   C159       1.0     0.060500      0.463950      0.333630     Biso  1.000000 C
   C160       1.0     0.939500      0.536050      0.666370     Biso  1.000000 C
   C161       1.0     0.094400      0.574290      0.101290     Biso  1.000000 C
   C162       1.0     0.905600      0.425710      0.898710     Biso  1.000000 C
   C163       1.0     0.905600      0.425710      0.101290     Biso  1.000000 C
   C164       1.0     0.094400      0.574290      0.898710     Biso  1.000000 C
   C165       1.0     0.405600      0.074290      0.898710     Biso  1.000000 C
   C166       1.0     0.594400      0.925710      0.101290     Biso  1.000000 C
   C167       1.0     0.594400      0.925710      0.898710     Biso  1.000000 C
   C168       1.0     0.405600      0.074290      0.101290     Biso  1.000000 C
   C169       1.0     0.594400      0.074290      0.601290     Biso  1.000000 C
   C170       1.0     0.405600      0.925710      0.398710     Biso  1.000000 C
   C171       1.0     0.405600      0.925710      0.601290     Biso  1.000000 C
   C172       1.0     0.594400      0.074290      0.398710     Biso  1.000000 C
   C173       1.0     0.905600      0.574290      0.398710     Biso  1.000000 C
   C174       1.0     0.094400      0.425710      0.601290     Biso  1.000000 C
   C175       1.0     0.094400      0.425710      0.398710     Biso  1.000000 C
   C176       1.0     0.905600      0.574290      0.601290     Biso  1.000000 C
   C177       1.0     0.111180      0.582870      0.080230     Biso  1.000000 C
   C178       1.0     0.888820      0.417130      0.919770     Biso  1.000000 C
   C179       1.0     0.888820      0.417130      0.080230     Biso  1.000000 C
   C180       1.0     0.111180      0.582870      0.919770     Biso  1.000000 C
   C181       1.0     0.388820      0.082870      0.919770     Biso  1.000000 C
   C182       1.0     0.611180      0.917130      0.080230     Biso  1.000000 C
   C183       1.0     0.611180      0.917130      0.919770     Biso  1.000000 C
   C184       1.0     0.388820      0.082870      0.080230     Biso  1.000000 C
   C185       1.0     0.611180      0.082870      0.580230     Biso  1.000000 C
   C186       1.0     0.388820      0.917130      0.419770     Biso  1.000000 C
   C187       1.0     0.388820      0.917130      0.580230     Biso  1.000000 C
   C188       1.0     0.611180      0.082870      0.419770     Biso  1.000000 C
   C189       1.0     0.888820      0.582870      0.419770     Biso  1.000000 C
   C190       1.0     0.111180      0.417130      0.580230     Biso  1.000000 C
   C191       1.0     0.111180      0.417130      0.419770     Biso  1.000000 C
   C192       1.0     0.888820      0.582870      0.580230     Biso  1.000000 C
   C193       1.0     0.141510      0.599860      0.040420     Biso  1.000000 C
   C194       1.0     0.858490      0.400140      0.959580     Biso  1.000000 C
   C195       1.0     0.858490      0.400140      0.040420     Biso  1.000000 C
   C196       1.0     0.141510      0.599860      0.959580     Biso  1.000000 C
   C197       1.0     0.358490      0.099860      0.959580     Biso  1.000000 C
   C198       1.0     0.641510      0.900140      0.040420     Biso  1.000000 C
   C199       1.0     0.641510      0.900140      0.959580     Biso  1.000000 C
   C200       1.0     0.358490      0.099860      0.040420     Biso  1.000000 C
   C201       1.0     0.641510      0.099860      0.540420     Biso  1.000000 C
   C202       1.0     0.358490      0.900140      0.459580     Biso  1.000000 C
   C203       1.0     0.358490      0.900140      0.540420     Biso  1.000000 C
   C204       1.0     0.641510      0.099860      0.459580     Biso  1.000000 C
   C205       1.0     0.858490      0.599860      0.459580     Biso  1.000000 C
   C206       1.0     0.141510      0.400140      0.540420     Biso  1.000000 C
   C207       1.0     0.141510      0.400140      0.459580     Biso  1.000000 C
   C208       1.0     0.858490      0.599860      0.540420     Biso  1.000000 C
   C209       1.0     0.170070      0.618120      0.038780     Biso  1.000000 C
   C210       1.0     0.829930      0.381880      0.961220     Biso  1.000000 C
   C211       1.0     0.829930      0.381880      0.038780     Biso  1.000000 C
   C212       1.0     0.170070      0.618120      0.961220     Biso  1.000000 C
   C213       1.0     0.329930      0.118120      0.961220     Biso  1.000000 C
   C214       1.0     0.670070      0.881880      0.038780     Biso  1.000000 C
   C215       1.0     0.670070      0.881880      0.961220     Biso  1.000000 C
   C216       1.0     0.329930      0.118120      0.038780     Biso  1.000000 C
   C217       1.0     0.670070      0.118120      0.538780     Biso  1.000000 C
   C218       1.0     0.329930      0.881880      0.461220     Biso  1.000000 C
   C219       1.0     0.329930      0.881880      0.538780     Biso  1.000000 C
   C220       1.0     0.670070      0.118120      0.461220     Biso  1.000000 C
   C221       1.0     0.829930      0.618120      0.461220     Biso  1.000000 C
   C222       1.0     0.170070      0.381880      0.538780     Biso  1.000000 C
   C223       1.0     0.170070      0.381880      0.461220     Biso  1.000000 C
   C224       1.0     0.829930      0.618120      0.538780     Biso  1.000000 C
   C225       1.0     0.157100      0.608830      0.019470     Biso  1.000000 C
   C226       1.0     0.842900      0.391170      0.980530     Biso  1.000000 C
   C227       1.0     0.842900      0.391170      0.019470     Biso  1.000000 C
   C228       1.0     0.157100      0.608830      0.980530     Biso  1.000000 C
   C229       1.0     0.342900      0.108830      0.980530     Biso  1.000000 C
   C230       1.0     0.657100      0.891170      0.019470     Biso  1.000000 C
   C231       1.0     0.657100      0.891170      0.980530     Biso  1.000000 C
   C232       1.0     0.342900      0.108830      0.019470     Biso  1.000000 C
   C233       1.0     0.657100      0.108830      0.519470     Biso  1.000000 C
   C234       1.0     0.342900      0.891170      0.480530     Biso  1.000000 C
   C235       1.0     0.342900      0.891170      0.519470     Biso  1.000000 C
   C236       1.0     0.657100      0.108830      0.480530     Biso  1.000000 C
   C237       1.0     0.842900      0.608830      0.480530     Biso  1.000000 C
   C238       1.0     0.157100      0.391170      0.519470     Biso  1.000000 C
   C239       1.0     0.157100      0.391170      0.480530     Biso  1.000000 C
   C240       1.0     0.842900      0.608830      0.519470     Biso  1.000000 C
   C241       1.0     0.182710      0.627330      0.019420     Biso  1.000000 C
   C242       1.0     0.817290      0.372670      0.980580     Biso  1.000000 C
   C243       1.0     0.817290      0.372670      0.019420     Biso  1.000000 C
   C244       1.0     0.182710      0.627330      0.980580     Biso  1.000000 C
   C245       1.0     0.317290      0.127330      0.980580     Biso  1.000000 C
   C246       1.0     0.682710      0.872670      0.019420     Biso  1.000000 C
   C247       1.0     0.682710      0.872670      0.980580     Biso  1.000000 C
   C248       1.0     0.317290      0.127330      0.019420     Biso  1.000000 C
   C249       1.0     0.682710      0.127330      0.519420     Biso  1.000000 C
   C250       1.0     0.317290      0.872670      0.480580     Biso  1.000000 C
   C251       1.0     0.317290      0.872670      0.519420     Biso  1.000000 C
   C252       1.0     0.682710      0.127330      0.480580     Biso  1.000000 C
   C253       1.0     0.817290      0.627330      0.480580     Biso  1.000000 C
   C254       1.0     0.182710      0.372670      0.519420     Biso  1.000000 C
   C255       1.0     0.182710      0.372670      0.480580     Biso  1.000000 C
   C256       1.0     0.817290      0.627330      0.519420     Biso  1.000000 C
   C257       1.0     0.179640      0.648930      0.019440     Biso  1.000000 C
   C258       1.0     0.820360      0.351070      0.980560     Biso  1.000000 C
   C259       1.0     0.820360      0.351070      0.019440     Biso  1.000000 C
   C260       1.0     0.179640      0.648930      0.980560     Biso  1.000000 C
   C261       1.0     0.320360      0.148930      0.980560     Biso  1.000000 C
   C262       1.0     0.679640      0.851070      0.019440     Biso  1.000000 C
   C263       1.0     0.679640      0.851070      0.980560     Biso  1.000000 C
   C264       1.0     0.320360      0.148930      0.019440     Biso  1.000000 C
   C265       1.0     0.679640      0.148930      0.519440     Biso  1.000000 C
   C266       1.0     0.320360      0.851070      0.480560     Biso  1.000000 C
   C267       1.0     0.320360      0.851070      0.519440     Biso  1.000000 C
   C268       1.0     0.679640      0.148930      0.480560     Biso  1.000000 C
   C269       1.0     0.820360      0.648930      0.480560     Biso  1.000000 C
   C270       1.0     0.179640      0.351070      0.519440     Biso  1.000000 C
   C271       1.0     0.179640      0.351070      0.480560     Biso  1.000000 C
   C272       1.0     0.820360      0.648930      0.519440     Biso  1.000000 C
   C273       1.0     0.167580      0.658290      0.038790     Biso  1.000000 C
   C274       1.0     0.832420      0.341710      0.961210     Biso  1.000000 C
   C275       1.0     0.832420      0.341710      0.038790     Biso  1.000000 C
   C276       1.0     0.167580      0.658290      0.961210     Biso  1.000000 C
   C277       1.0     0.332420      0.158290      0.961210     Biso  1.000000 C
   C278       1.0     0.667580      0.841710      0.038790     Biso  1.000000 C
   C279       1.0     0.667580      0.841710      0.961210     Biso  1.000000 C
   C280       1.0     0.332420      0.158290      0.038790     Biso  1.000000 C
   C281       1.0     0.667580      0.158290      0.538790     Biso  1.000000 C
   C282       1.0     0.332420      0.841710      0.461210     Biso  1.000000 C
   C283       1.0     0.332420      0.841710      0.538790     Biso  1.000000 C
   C284       1.0     0.667580      0.158290      0.461210     Biso  1.000000 C
   C285       1.0     0.832420      0.658290      0.461210     Biso  1.000000 C
   C286       1.0     0.167580      0.341710      0.538790     Biso  1.000000 C
   C287       1.0     0.167580      0.341710      0.461210     Biso  1.000000 C
   C288       1.0     0.832420      0.658290      0.538790     Biso  1.000000 C
   C289       1.0     0.155420      0.667810      0.019500     Biso  1.000000 C
   C290       1.0     0.844580      0.332190      0.980500     Biso  1.000000 C
   C291       1.0     0.844580      0.332190      0.019500     Biso  1.000000 C
   C292       1.0     0.155420      0.667810      0.980500     Biso  1.000000 C
   C293       1.0     0.344580      0.167810      0.980500     Biso  1.000000 C
   C294       1.0     0.655420      0.832190      0.019500     Biso  1.000000 C
   C295       1.0     0.655420      0.832190      0.980500     Biso  1.000000 C
   C296       1.0     0.344580      0.167810      0.019500     Biso  1.000000 C
   C297       1.0     0.655420      0.167810      0.519500     Biso  1.000000 C
   C298       1.0     0.344580      0.832190      0.480500     Biso  1.000000 C
   C299       1.0     0.344580      0.832190      0.519500     Biso  1.000000 C
   C300       1.0     0.655420      0.167810      0.480500     Biso  1.000000 C
   C301       1.0     0.844580      0.667810      0.480500     Biso  1.000000 C
   C302       1.0     0.155420      0.332190      0.519500     Biso  1.000000 C
   C303       1.0     0.155420      0.332190      0.480500     Biso  1.000000 C
   C304       1.0     0.844580      0.667810      0.519500     Biso  1.000000 C
   C305       1.0     0.144860      0.678090      0.040630     Biso  1.000000 C
   C306       1.0     0.855140      0.321910      0.959370     Biso  1.000000 C
   C307       1.0     0.855140      0.321910      0.040630     Biso  1.000000 C
   C308       1.0     0.144860      0.678090      0.959370     Biso  1.000000 C
   C309       1.0     0.355140      0.178090      0.959370     Biso  1.000000 C
   C310       1.0     0.644860      0.821910      0.040630     Biso  1.000000 C
   C311       1.0     0.644860      0.821910      0.959370     Biso  1.000000 C
   C312       1.0     0.355140      0.178090      0.040630     Biso  1.000000 C
   C313       1.0     0.644860      0.178090      0.540630     Biso  1.000000 C
   C314       1.0     0.355140      0.821910      0.459370     Biso  1.000000 C
   C315       1.0     0.355140      0.821910      0.540630     Biso  1.000000 C
   C316       1.0     0.644860      0.178090      0.459370     Biso  1.000000 C
   C317       1.0     0.855140      0.678090      0.459370     Biso  1.000000 C
   C318       1.0     0.144860      0.321910      0.540630     Biso  1.000000 C
   C319       1.0     0.144860      0.321910      0.459370     Biso  1.000000 C
   C320       1.0     0.855140      0.678090      0.540630     Biso  1.000000 C
   C321       1.0     0.125150      0.697810      0.080840     Biso  1.000000 C
   C322       1.0     0.874850      0.302190      0.919160     Biso  1.000000 C
   C323       1.0     0.874850      0.302190      0.080840     Biso  1.000000 C
   C324       1.0     0.125150      0.697810      0.919160     Biso  1.000000 C
   C325       1.0     0.374850      0.197810      0.919160     Biso  1.000000 C
   C326       1.0     0.625150      0.802190      0.080840     Biso  1.000000 C
   C327       1.0     0.625150      0.802190      0.919160     Biso  1.000000 C
   C328       1.0     0.374850      0.197810      0.080840     Biso  1.000000 C
   C329       1.0     0.625150      0.197810      0.580840     Biso  1.000000 C
   C330       1.0     0.374850      0.802190      0.419160     Biso  1.000000 C
   C331       1.0     0.374850      0.802190      0.580840     Biso  1.000000 C
   C332       1.0     0.625150      0.197810      0.419160     Biso  1.000000 C
   C333       1.0     0.874850      0.697810      0.419160     Biso  1.000000 C
   C334       1.0     0.125150      0.302190      0.580840     Biso  1.000000 C
   C335       1.0     0.125150      0.302190      0.419160     Biso  1.000000 C
   C336       1.0     0.874850      0.697810      0.580840     Biso  1.000000 C
   C337       1.0     0.115030      0.708110      0.102280     Biso  1.000000 C
   C338       1.0     0.884970      0.291890      0.897720     Biso  1.000000 C
   C339       1.0     0.884970      0.291890      0.102280     Biso  1.000000 C
   C340       1.0     0.115030      0.708110      0.897720     Biso  1.000000 C
   C341       1.0     0.384970      0.208110      0.897720     Biso  1.000000 C
   C342       1.0     0.615030      0.791890      0.102280     Biso  1.000000 C
   C343       1.0     0.615030      0.791890      0.897720     Biso  1.000000 C
   C344       1.0     0.384970      0.208110      0.102280     Biso  1.000000 C
   C345       1.0     0.615030      0.208110      0.602280     Biso  1.000000 C
   C346       1.0     0.384970      0.791890      0.397720     Biso  1.000000 C
   C347       1.0     0.384970      0.791890      0.602280     Biso  1.000000 C
   C348       1.0     0.615030      0.208110      0.397720     Biso  1.000000 C
   C349       1.0     0.884970      0.708110      0.397720     Biso  1.000000 C
   C350       1.0     0.115030      0.291890      0.602280     Biso  1.000000 C
   C351       1.0     0.115030      0.291890      0.397720     Biso  1.000000 C
   C352       1.0     0.884970      0.708110      0.602280     Biso  1.000000 C
   C353       1.0     0.078510      0.721560      0.118940     Biso  1.000000 C
   C354       1.0     0.921490      0.278440      0.881060     Biso  1.000000 C
   C355       1.0     0.921490      0.278440      0.118940     Biso  1.000000 C
   C356       1.0     0.078510      0.721560      0.881060     Biso  1.000000 C
   C357       1.0     0.421490      0.221560      0.881060     Biso  1.000000 C
   C358       1.0     0.578510      0.778440      0.118940     Biso  1.000000 C
   C359       1.0     0.578510      0.778440      0.881060     Biso  1.000000 C
   C360       1.0     0.421490      0.221560      0.118940     Biso  1.000000 C
   C361       1.0     0.578510      0.221560      0.618940     Biso  1.000000 C
   C362       1.0     0.421490      0.778440      0.381060     Biso  1.000000 C
   C363       1.0     0.421490      0.778440      0.618940     Biso  1.000000 C
   C364       1.0     0.578510      0.221560      0.381060     Biso  1.000000 C
   C365       1.0     0.921490      0.721560      0.381060     Biso  1.000000 C
   C366       1.0     0.078510      0.278440      0.618940     Biso  1.000000 C
   C367       1.0     0.078510      0.278440      0.381060     Biso  1.000000 C
   C368       1.0     0.921490      0.721560      0.618940     Biso  1.000000 C
   C369       1.0     0.053480      0.740320      0.158470     Biso  1.000000 C
   C370       1.0     0.946520      0.259680      0.841530     Biso  1.000000 C
   C371       1.0     0.946520      0.259680      0.158470     Biso  1.000000 C
   C372       1.0     0.053480      0.740320      0.841530     Biso  1.000000 C
   C373       1.0     0.446520      0.240320      0.841530     Biso  1.000000 C
   C374       1.0     0.553480      0.759680      0.158470     Biso  1.000000 C
   C375       1.0     0.553480      0.759680      0.841530     Biso  1.000000 C
   C376       1.0     0.446520      0.240320      0.158470     Biso  1.000000 C
   C377       1.0     0.553480      0.240320      0.658470     Biso  1.000000 C
   C378       1.0     0.446520      0.759680      0.341530     Biso  1.000000 C
   C379       1.0     0.446520      0.759680      0.658470     Biso  1.000000 C
   C380       1.0     0.553480      0.240320      0.341530     Biso  1.000000 C
   C381       1.0     0.946520      0.740320      0.341530     Biso  1.000000 C
   C382       1.0     0.053480      0.259680      0.658470     Biso  1.000000 C
   C383       1.0     0.053480      0.259680      0.341530     Biso  1.000000 C
   C384       1.0     0.946520      0.740320      0.658470     Biso  1.000000 C
   C385       1.0     0.040280      0.750050      0.179930     Biso  1.000000 C
   C386       1.0     0.959720      0.249950      0.820070     Biso  1.000000 C
   C387       1.0     0.959720      0.249950      0.179930     Biso  1.000000 C
   C388       1.0     0.040280      0.750050      0.820070     Biso  1.000000 C
   C389       1.0     0.459720      0.250050      0.820070     Biso  1.000000 C
   C390       1.0     0.540280      0.749950      0.179930     Biso  1.000000 C
   C391       1.0     0.540280      0.749950      0.820070     Biso  1.000000 C
   C392       1.0     0.459720      0.250050      0.179930     Biso  1.000000 C
   C393       1.0     0.540280      0.250050      0.679930     Biso  1.000000 C
   C394       1.0     0.459720      0.749950      0.320070     Biso  1.000000 C
   C395       1.0     0.459720      0.749950      0.679930     Biso  1.000000 C
   C396       1.0     0.540280      0.250050      0.320070     Biso  1.000000 C
   C397       1.0     0.959720      0.750050      0.320070     Biso  1.000000 C
   C398       1.0     0.040280      0.249950      0.679930     Biso  1.000000 C
   C399       1.0     0.040280      0.249950      0.320070     Biso  1.000000 C
   C400       1.0     0.959720      0.750050      0.679930     Biso  1.000000 C
   C401       1.0     0.015020      0.768010      0.223570     Biso  1.000000 C
   C402       1.0     0.984980      0.231990      0.776430     Biso  1.000000 C
   C403       1.0     0.984980      0.231990      0.223570     Biso  1.000000 C
   C404       1.0     0.015020      0.768010      0.776430     Biso  1.000000 C
   C405       1.0     0.484980      0.268010      0.776430     Biso  1.000000 C
   C406       1.0     0.515020      0.731990      0.223570     Biso  1.000000 C
   C407       1.0     0.515020      0.731990      0.776430     Biso  1.000000 C
   C408       1.0     0.484980      0.268010      0.223570     Biso  1.000000 C
   C409       1.0     0.515020      0.268010      0.723570     Biso  1.000000 C
   C410       1.0     0.484980      0.731990      0.276430     Biso  1.000000 C
   C411       1.0     0.484980      0.731990      0.723570     Biso  1.000000 C
   C412       1.0     0.515020      0.268010      0.276430     Biso  1.000000 C
   C413       1.0     0.984980      0.768010      0.276430     Biso  1.000000 C
   C414       1.0     0.015020      0.231990      0.723570     Biso  1.000000 C
   C415       1.0     0.015020      0.231990      0.276430     Biso  1.000000 C
   C416       1.0     0.984980      0.768010      0.723570     Biso  1.000000 C
   C417       1.0     0.195280      0.638510      0.036610     Biso  1.000000 C
   C418       1.0     0.804720      0.361490      0.963390     Biso  1.000000 C
   C419       1.0     0.804720      0.361490      0.036610     Biso  1.000000 C
   C420       1.0     0.195280      0.638510      0.963390     Biso  1.000000 C
   C421       1.0     0.304720      0.138510      0.963390     Biso  1.000000 C
   C422       1.0     0.695280      0.861490      0.036610     Biso  1.000000 C
   C423       1.0     0.695280      0.861490      0.963390     Biso  1.000000 C
   C424       1.0     0.304720      0.138510      0.036610     Biso  1.000000 C
   C425       1.0     0.695280      0.138510      0.536610     Biso  1.000000 C
   C426       1.0     0.304720      0.861490      0.463390     Biso  1.000000 C
   C427       1.0     0.304720      0.861490      0.536610     Biso  1.000000 C
   C428       1.0     0.695280      0.138510      0.463390     Biso  1.000000 C
   C429       1.0     0.804720      0.638510      0.463390     Biso  1.000000 C
   C430       1.0     0.195280      0.361490      0.536610     Biso  1.000000 C
   C431       1.0     0.195280      0.361490      0.463390     Biso  1.000000 C
   C432       1.0     0.804720      0.638510      0.536610     Biso  1.000000 C
   C433       1.0     0.398810      0.094530      0.074690     Biso  1.000000 C
   C434       1.0     0.601190      0.905470      0.925310     Biso  1.000000 C
   C435       1.0     0.601190      0.905470      0.074690     Biso  1.000000 C
   C436       1.0     0.398810      0.094530      0.925310     Biso  1.000000 C
   C437       1.0     0.101190      0.594530      0.925310     Biso  1.000000 C
   C438       1.0     0.898810      0.405470      0.074690     Biso  1.000000 C
   C439       1.0     0.898810      0.405470      0.925310     Biso  1.000000 C
   C440       1.0     0.101190      0.594530      0.074690     Biso  1.000000 C
   C441       1.0     0.898810      0.594530      0.574690     Biso  1.000000 C
   C442       1.0     0.101190      0.405470      0.425310     Biso  1.000000 C
   C443       1.0     0.101190      0.405470      0.574690     Biso  1.000000 C
   C444       1.0     0.898810      0.594530      0.425310     Biso  1.000000 C
   C445       1.0     0.601190      0.094530      0.425310     Biso  1.000000 C
   C446       1.0     0.398810      0.905470      0.574690     Biso  1.000000 C
   C447       1.0     0.398810      0.905470      0.425310     Biso  1.000000 C
   C448       1.0     0.601190      0.094530      0.574690     Biso  1.000000 C
   C449       1.0     0.383770      0.102950      0.055000     Biso  1.000000 C
   C450       1.0     0.616230      0.897050      0.945000     Biso  1.000000 C
   C451       1.0     0.616230      0.897050      0.055000     Biso  1.000000 C
   C452       1.0     0.383770      0.102950      0.945000     Biso  1.000000 C
   C453       1.0     0.116230      0.602950      0.945000     Biso  1.000000 C
   C454       1.0     0.883770      0.397050      0.055000     Biso  1.000000 C
   C455       1.0     0.883770      0.397050      0.945000     Biso  1.000000 C
   C456       1.0     0.116230      0.602950      0.055000     Biso  1.000000 C
   C457       1.0     0.883770      0.602950      0.555000     Biso  1.000000 C
   C458       1.0     0.116230      0.397050      0.445000     Biso  1.000000 C
   C459       1.0     0.116230      0.397050      0.555000     Biso  1.000000 C
   C460       1.0     0.883770      0.602950      0.445000     Biso  1.000000 C
   C461       1.0     0.616230      0.102950      0.445000     Biso  1.000000 C
   C462       1.0     0.383770      0.897050      0.555000     Biso  1.000000 C
   C463       1.0     0.383770      0.897050      0.445000     Biso  1.000000 C
   C464       1.0     0.616230      0.102950      0.555000     Biso  1.000000 C
   C465       1.0     0.348260      0.088270      0.045890     Biso  1.000000 C
   C466       1.0     0.651740      0.911730      0.954110     Biso  1.000000 C
   C467       1.0     0.651740      0.911730      0.045890     Biso  1.000000 C
   C468       1.0     0.348260      0.088270      0.954110     Biso  1.000000 C
   C469       1.0     0.151740      0.588270      0.954110     Biso  1.000000 C
   C470       1.0     0.848260      0.411730      0.045890     Biso  1.000000 C
   C471       1.0     0.848260      0.411730      0.954110     Biso  1.000000 C
   C472       1.0     0.151740      0.588270      0.045890     Biso  1.000000 C
   C473       1.0     0.848260      0.588270      0.545890     Biso  1.000000 C
   C474       1.0     0.151740      0.411730      0.454110     Biso  1.000000 C
   C475       1.0     0.151740      0.411730      0.545890     Biso  1.000000 C
   C476       1.0     0.848260      0.588270      0.454110     Biso  1.000000 C
   C477       1.0     0.651740      0.088270      0.454110     Biso  1.000000 C
   C478       1.0     0.348260      0.911730      0.545890     Biso  1.000000 C
   C479       1.0     0.348260      0.911730      0.454110     Biso  1.000000 C
   C480       1.0     0.651740      0.088270      0.545890     Biso  1.000000 C
   C481       1.0     0.363270      0.079780      0.065580     Biso  1.000000 C
   C482       1.0     0.636730      0.920220      0.934420     Biso  1.000000 C
   C483       1.0     0.636730      0.920220      0.065580     Biso  1.000000 C
   C484       1.0     0.363270      0.079780      0.934420     Biso  1.000000 C
   C485       1.0     0.136730      0.579780      0.934420     Biso  1.000000 C
   C486       1.0     0.863270      0.420220      0.065580     Biso  1.000000 C
   C487       1.0     0.863270      0.420220      0.934420     Biso  1.000000 C
   C488       1.0     0.136730      0.579780      0.065580     Biso  1.000000 C
   C489       1.0     0.863270      0.579780      0.565580     Biso  1.000000 C
   C490       1.0     0.136730      0.420220      0.434420     Biso  1.000000 C
   C491       1.0     0.136730      0.420220      0.565580     Biso  1.000000 C
   C492       1.0     0.863270      0.579780      0.434420     Biso  1.000000 C
   C493       1.0     0.636730      0.079780      0.434420     Biso  1.000000 C
   C494       1.0     0.363270      0.920220      0.565580     Biso  1.000000 C
   C495       1.0     0.363270      0.920220      0.434420     Biso  1.000000 C
   C496       1.0     0.636730      0.079780      0.565580     Biso  1.000000 C
   C497       1.0     0.159670      0.146550      0.063960     Biso  1.000000 C
   C498       1.0     0.840330      0.853450      0.936040     Biso  1.000000 C
   C499       1.0     0.840330      0.853450      0.063960     Biso  1.000000 C
   C500       1.0     0.159670      0.146550      0.936040     Biso  1.000000 C
   C501       1.0     0.340330      0.646550      0.936040     Biso  1.000000 C
   C502       1.0     0.659670      0.353450      0.063960     Biso  1.000000 C
   C503       1.0     0.659670      0.353450      0.936040     Biso  1.000000 C
   C504       1.0     0.340330      0.646550      0.063960     Biso  1.000000 C
   C505       1.0     0.659670      0.646550      0.563960     Biso  1.000000 C
   C506       1.0     0.340330      0.353450      0.436040     Biso  1.000000 C
   C507       1.0     0.340330      0.353450      0.563960     Biso  1.000000 C
   C508       1.0     0.659670      0.646550      0.436040     Biso  1.000000 C
   C509       1.0     0.840330      0.146550      0.436040     Biso  1.000000 C
   C510       1.0     0.159670      0.853450      0.563960     Biso  1.000000 C
   C511       1.0     0.159670      0.853450      0.436040     Biso  1.000000 C
   C512       1.0     0.840330      0.146550      0.563960     Biso  1.000000 C
   C513       1.0     0.182040      0.142050      0.044770     Biso  1.000000 C
   C514       1.0     0.817960      0.857950      0.955230     Biso  1.000000 C
   C515       1.0     0.817960      0.857950      0.044770     Biso  1.000000 C
   C516       1.0     0.182040      0.142050      0.955230     Biso  1.000000 C
   C517       1.0     0.317960      0.642050      0.955230     Biso  1.000000 C
   C518       1.0     0.682040      0.357950      0.044770     Biso  1.000000 C
   C519       1.0     0.682040      0.357950      0.955230     Biso  1.000000 C
   C520       1.0     0.317960      0.642050      0.044770     Biso  1.000000 C
   C521       1.0     0.682040      0.642050      0.544770     Biso  1.000000 C
   C522       1.0     0.317960      0.357950      0.455230     Biso  1.000000 C
   C523       1.0     0.317960      0.357950      0.544770     Biso  1.000000 C
   C524       1.0     0.682040      0.642050      0.455230     Biso  1.000000 C
   C525       1.0     0.817960      0.142050      0.455230     Biso  1.000000 C
   C526       1.0     0.182040      0.857950      0.544770     Biso  1.000000 C
   C527       1.0     0.182040      0.857950      0.455230     Biso  1.000000 C
   C528       1.0     0.817960      0.142050      0.544770     Biso  1.000000 C
   C529       1.0     0.206510      0.160480      0.056380     Biso  1.000000 C
   C530       1.0     0.793490      0.839520      0.943620     Biso  1.000000 C
   C531       1.0     0.793490      0.839520      0.056380     Biso  1.000000 C
   C532       1.0     0.206510      0.160480      0.943620     Biso  1.000000 C
   C533       1.0     0.293490      0.660480      0.943620     Biso  1.000000 C
   C534       1.0     0.706510      0.339520      0.056380     Biso  1.000000 C
   C535       1.0     0.706510      0.339520      0.943620     Biso  1.000000 C
   C536       1.0     0.293490      0.660480      0.056380     Biso  1.000000 C
   C537       1.0     0.706510      0.660480      0.556380     Biso  1.000000 C
   C538       1.0     0.293490      0.339520      0.443620     Biso  1.000000 C
   C539       1.0     0.293490      0.339520      0.556380     Biso  1.000000 C
   C540       1.0     0.706510      0.660480      0.443620     Biso  1.000000 C
   C541       1.0     0.793490      0.160480      0.443620     Biso  1.000000 C
   C542       1.0     0.206510      0.839520      0.556380     Biso  1.000000 C
   C543       1.0     0.206510      0.839520      0.443620     Biso  1.000000 C
   C544       1.0     0.793490      0.160480      0.556380     Biso  1.000000 C
   C545       1.0     0.184370      0.164960      0.075850     Biso  1.000000 C
   C546       1.0     0.815630      0.835040      0.924150     Biso  1.000000 C
   C547       1.0     0.815630      0.835040      0.075850     Biso  1.000000 C
   C548       1.0     0.184370      0.164960      0.924150     Biso  1.000000 C
   C549       1.0     0.315630      0.664960      0.924150     Biso  1.000000 C
   C550       1.0     0.684370      0.335040      0.075850     Biso  1.000000 C
   C551       1.0     0.684370      0.335040      0.924150     Biso  1.000000 C
   C552       1.0     0.315630      0.664960      0.075850     Biso  1.000000 C
   C553       1.0     0.684370      0.664960      0.575850     Biso  1.000000 C
   C554       1.0     0.315630      0.335040      0.424150     Biso  1.000000 C
   C555       1.0     0.315630      0.335040      0.575850     Biso  1.000000 C
   C556       1.0     0.684370      0.664960      0.424150     Biso  1.000000 C
   C557       1.0     0.815630      0.164960      0.424150     Biso  1.000000 C
   C558       1.0     0.184370      0.835040      0.575850     Biso  1.000000 C
   C559       1.0     0.184370      0.835040      0.424150     Biso  1.000000 C
   C560       1.0     0.815630      0.164960      0.575850     Biso  1.000000 C
   C561       1.0     0.019130      0.213180      0.191170     Biso  1.000000 C
   C562       1.0     0.980870      0.786820      0.808830     Biso  1.000000 C
   C563       1.0     0.980870      0.786820      0.191170     Biso  1.000000 C
   C564       1.0     0.019130      0.213180      0.808830     Biso  1.000000 C
   C565       1.0     0.480870      0.713180      0.808830     Biso  1.000000 C
   C566       1.0     0.519130      0.286820      0.191170     Biso  1.000000 C
   C567       1.0     0.519130      0.286820      0.808830     Biso  1.000000 C
   C568       1.0     0.480870      0.713180      0.191170     Biso  1.000000 C
   C569       1.0     0.519130      0.713180      0.691170     Biso  1.000000 C
   C570       1.0     0.480870      0.286820      0.308830     Biso  1.000000 C
   C571       1.0     0.480870      0.286820      0.691170     Biso  1.000000 C
   C572       1.0     0.519130      0.713180      0.308830     Biso  1.000000 C
   C573       1.0     0.980870      0.213180      0.308830     Biso  1.000000 C
   C574       1.0     0.019130      0.786820      0.691170     Biso  1.000000 C
   C575       1.0     0.019130      0.786820      0.308830     Biso  1.000000 C
   C576       1.0     0.980870      0.213180      0.691170     Biso  1.000000 C
   C577       1.0     0.037590      0.205530      0.173920     Biso  1.000000 C
   C578       1.0     0.962410      0.794470      0.826080     Biso  1.000000 C
   C579       1.0     0.962410      0.794470      0.173920     Biso  1.000000 C
   C580       1.0     0.037590      0.205530      0.826080     Biso  1.000000 C
   C581       1.0     0.462410      0.705530      0.826080     Biso  1.000000 C
   C582       1.0     0.537590      0.294470      0.173920     Biso  1.000000 C
   C583       1.0     0.537590      0.294470      0.826080     Biso  1.000000 C
   C584       1.0     0.462410      0.705530      0.173920     Biso  1.000000 C
   C585       1.0     0.537590      0.705530      0.673920     Biso  1.000000 C
   C586       1.0     0.462410      0.294470      0.326080     Biso  1.000000 C
   C587       1.0     0.462410      0.294470      0.673920     Biso  1.000000 C
   C588       1.0     0.537590      0.705530      0.326080     Biso  1.000000 C
   C589       1.0     0.962410      0.205530      0.326080     Biso  1.000000 C
   C590       1.0     0.037590      0.794470      0.673920     Biso  1.000000 C
   C591       1.0     0.037590      0.794470      0.326080     Biso  1.000000 C
   C592       1.0     0.962410      0.205530      0.673920     Biso  1.000000 C
   C593       1.0     0.056630      0.199080      0.194550     Biso  1.000000 C
   C594       1.0     0.943370      0.800920      0.805450     Biso  1.000000 C
   C595       1.0     0.943370      0.800920      0.194550     Biso  1.000000 C
   C596       1.0     0.056630      0.199080      0.805450     Biso  1.000000 C
   C597       1.0     0.443370      0.699080      0.805450     Biso  1.000000 C
   C598       1.0     0.556630      0.300920      0.194550     Biso  1.000000 C
   C599       1.0     0.556630      0.300920      0.805450     Biso  1.000000 C
   C600       1.0     0.443370      0.699080      0.194550     Biso  1.000000 C
   C601       1.0     0.556630      0.699080      0.694550     Biso  1.000000 C
   C602       1.0     0.443370      0.300920      0.305450     Biso  1.000000 C
   C603       1.0     0.443370      0.300920      0.694550     Biso  1.000000 C
   C604       1.0     0.556630      0.699080      0.305450     Biso  1.000000 C
   C605       1.0     0.943370      0.199080      0.305450     Biso  1.000000 C
   C606       1.0     0.056630      0.800920      0.694550     Biso  1.000000 C
   C607       1.0     0.056630      0.800920      0.305450     Biso  1.000000 C
   C608       1.0     0.943370      0.199080      0.694550     Biso  1.000000 C
   C609       1.0     0.055930      0.199900      0.232890     Biso  1.000000 C
   C610       1.0     0.944070      0.800100      0.767110     Biso  1.000000 C
   C611       1.0     0.944070      0.800100      0.232890     Biso  1.000000 C
   C612       1.0     0.055930      0.199900      0.767110     Biso  1.000000 C
   C613       1.0     0.444070      0.699900      0.767110     Biso  1.000000 C
   C614       1.0     0.555930      0.300100      0.232890     Biso  1.000000 C
   C615       1.0     0.555930      0.300100      0.767110     Biso  1.000000 C
   C616       1.0     0.444070      0.699900      0.232890     Biso  1.000000 C
   C617       1.0     0.555930      0.699900      0.732890     Biso  1.000000 C
   C618       1.0     0.444070      0.300100      0.267110     Biso  1.000000 C
   C619       1.0     0.444070      0.300100      0.732890     Biso  1.000000 C
   C620       1.0     0.555930      0.699900      0.267110     Biso  1.000000 C
   C621       1.0     0.944070      0.199900      0.267110     Biso  1.000000 C
   C622       1.0     0.055930      0.800100      0.732890     Biso  1.000000 C
   C623       1.0     0.055930      0.800100      0.267110     Biso  1.000000 C
   C624       1.0     0.944070      0.199900      0.732890     Biso  1.000000 C
   C625       1.0     0.037350      0.207460      0.250180     Biso  1.000000 C
   C626       1.0     0.962650      0.792540      0.749820     Biso  1.000000 C
   C627       1.0     0.962650      0.792540      0.250180     Biso  1.000000 C
   C628       1.0     0.037350      0.207460      0.749820     Biso  1.000000 C
   C629       1.0     0.462650      0.707460      0.749820     Biso  1.000000 C
   C630       1.0     0.537350      0.292540      0.250180     Biso  1.000000 C
   C631       1.0     0.537350      0.292540      0.749820     Biso  1.000000 C
   C632       1.0     0.462650      0.707460      0.250180     Biso  1.000000 C
   C633       1.0     0.537350      0.707460      0.750180     Biso  1.000000 C
   C634       1.0     0.462650      0.292540      0.249820     Biso  1.000000 C
   C635       1.0     0.462650      0.292540      0.750180     Biso  1.000000 C
   C636       1.0     0.537350      0.707460      0.249820     Biso  1.000000 C
   C637       1.0     0.962650      0.207460      0.249820     Biso  1.000000 C
   C638       1.0     0.037350      0.792540      0.750180     Biso  1.000000 C
   C639       1.0     0.037350      0.792540      0.249820     Biso  1.000000 C
   C640       1.0     0.962650      0.207460      0.750180     Biso  1.000000 C
   C641       1.0     0.077600      0.191770      0.176010     Biso  1.000000 C
   C642       1.0     0.922400      0.808230      0.823990     Biso  1.000000 C
   C643       1.0     0.922400      0.808230      0.176010     Biso  1.000000 C
   C644       1.0     0.077600      0.191770      0.823990     Biso  1.000000 C
   C645       1.0     0.422400      0.691770      0.823990     Biso  1.000000 C
   C646       1.0     0.577600      0.308230      0.176010     Biso  1.000000 C
   C647       1.0     0.577600      0.308230      0.823990     Biso  1.000000 C
   C648       1.0     0.422400      0.691770      0.176010     Biso  1.000000 C
   C649       1.0     0.577600      0.691770      0.676010     Biso  1.000000 C
   C650       1.0     0.422400      0.308230      0.323990     Biso  1.000000 C
   C651       1.0     0.422400      0.308230      0.676010     Biso  1.000000 C
   C652       1.0     0.577600      0.691770      0.323990     Biso  1.000000 C
   C653       1.0     0.922400      0.191770      0.323990     Biso  1.000000 C
   C654       1.0     0.077600      0.808230      0.676010     Biso  1.000000 C
   C655       1.0     0.077600      0.808230      0.323990     Biso  1.000000 C
   C656       1.0     0.922400      0.191770      0.676010     Biso  1.000000 C
   C657       1.0     0.006680      0.513530      0.193700     Biso  1.000000 C
   C658       1.0     0.993320      0.486470      0.806300     Biso  1.000000 C
   C659       1.0     0.993320      0.486470      0.193700     Biso  1.000000 C
   C660       1.0     0.006680      0.513530      0.806300     Biso  1.000000 C
   C661       1.0     0.493320      0.013530      0.806300     Biso  1.000000 C
   C662       1.0     0.506680      0.986470      0.193700     Biso  1.000000 C
   C663       1.0     0.506680      0.986470      0.806300     Biso  1.000000 C
   C664       1.0     0.493320      0.013530      0.193700     Biso  1.000000 C
   C665       1.0     0.506680      0.013530      0.693700     Biso  1.000000 C
   C666       1.0     0.493320      0.986470      0.306300     Biso  1.000000 C
   C667       1.0     0.493320      0.986470      0.693700     Biso  1.000000 C
   C668       1.0     0.506680      0.013530      0.306300     Biso  1.000000 C
   C669       1.0     0.993320      0.513530      0.306300     Biso  1.000000 C
   C670       1.0     0.006680      0.486470      0.693700     Biso  1.000000 C
   C671       1.0     0.006680      0.486470      0.306300     Biso  1.000000 C
   C672       1.0     0.993320      0.513530      0.693700     Biso  1.000000 C
   C673       1.0     0.020990      0.522180      0.173930     Biso  1.000000 C
   C674       1.0     0.979010      0.477820      0.826070     Biso  1.000000 C
   C675       1.0     0.979010      0.477820      0.173930     Biso  1.000000 C
   C676       1.0     0.020990      0.522180      0.826070     Biso  1.000000 C
   C677       1.0     0.479010      0.022180      0.826070     Biso  1.000000 C
   C678       1.0     0.520990      0.977820      0.173930     Biso  1.000000 C
   C679       1.0     0.520990      0.977820      0.826070     Biso  1.000000 C
   C680       1.0     0.479010      0.022180      0.173930     Biso  1.000000 C
   C681       1.0     0.520990      0.022180      0.673930     Biso  1.000000 C
   C682       1.0     0.479010      0.977820      0.326070     Biso  1.000000 C
   C683       1.0     0.479010      0.977820      0.673930     Biso  1.000000 C
   C684       1.0     0.520990      0.022180      0.326070     Biso  1.000000 C
   C685       1.0     0.979010      0.522180      0.326070     Biso  1.000000 C
   C686       1.0     0.020990      0.477820      0.673930     Biso  1.000000 C
   C687       1.0     0.020990      0.477820      0.326070     Biso  1.000000 C
   C688       1.0     0.979010      0.522180      0.673930     Biso  1.000000 C
   C689       1.0     0.056000      0.522170      0.220220     Biso  1.000000 C
   C690       1.0     0.944000      0.477830      0.779780     Biso  1.000000 C
   C691       1.0     0.944000      0.477830      0.220220     Biso  1.000000 C
   C692       1.0     0.056000      0.522170      0.779780     Biso  1.000000 C
   C693       1.0     0.444000      0.022170      0.779780     Biso  1.000000 C
   C694       1.0     0.556000      0.977830      0.220220     Biso  1.000000 C
   C695       1.0     0.556000      0.977830      0.779780     Biso  1.000000 C
   C696       1.0     0.444000      0.022170      0.220220     Biso  1.000000 C
   C697       1.0     0.556000      0.022170      0.720220     Biso  1.000000 C
   C698       1.0     0.444000      0.977830      0.279780     Biso  1.000000 C
   C699       1.0     0.444000      0.977830      0.720220     Biso  1.000000 C
   C700       1.0     0.556000      0.022170      0.279780     Biso  1.000000 C
   C701       1.0     0.944000      0.522170      0.279780     Biso  1.000000 C
   C702       1.0     0.056000      0.477830      0.720220     Biso  1.000000 C
   C703       1.0     0.056000      0.477830      0.279780     Biso  1.000000 C
   C704       1.0     0.944000      0.522170      0.720220     Biso  1.000000 C
   C705       1.0     0.041700      0.513510      0.240030     Biso  1.000000 C
   C706       1.0     0.958300      0.486490      0.759970     Biso  1.000000 C
   C707       1.0     0.958300      0.486490      0.240030     Biso  1.000000 C
   C708       1.0     0.041700      0.513510      0.759970     Biso  1.000000 C
   C709       1.0     0.458300      0.013510      0.759970     Biso  1.000000 C
   C710       1.0     0.541700      0.986490      0.240030     Biso  1.000000 C
   C711       1.0     0.541700      0.986490      0.759970     Biso  1.000000 C
   C712       1.0     0.458300      0.013510      0.240030     Biso  1.000000 C
   C713       1.0     0.541700      0.013510      0.740030     Biso  1.000000 C
   C714       1.0     0.458300      0.986490      0.259970     Biso  1.000000 C
   C715       1.0     0.458300      0.986490      0.740030     Biso  1.000000 C
   C716       1.0     0.541700      0.013510      0.259970     Biso  1.000000 C
   C717       1.0     0.958300      0.513510      0.259970     Biso  1.000000 C
   C718       1.0     0.041700      0.486490      0.740030     Biso  1.000000 C
   C719       1.0     0.041700      0.486490      0.259970     Biso  1.000000 C
   C720       1.0     0.958300      0.513510      0.740030     Biso  1.000000 C
   C721       1.0     0.088560      0.535250      0.159890     Biso  1.000000 C
   C722       1.0     0.911440      0.464750      0.840110     Biso  1.000000 C
   C723       1.0     0.911440      0.464750      0.159890     Biso  1.000000 C
   C724       1.0     0.088560      0.535250      0.840110     Biso  1.000000 C
   C725       1.0     0.411440      0.035250      0.840110     Biso  1.000000 C
   C726       1.0     0.588560      0.964750      0.159890     Biso  1.000000 C
   C727       1.0     0.588560      0.964750      0.840110     Biso  1.000000 C
   C728       1.0     0.411440      0.035250      0.159890     Biso  1.000000 C
   C729       1.0     0.588560      0.035250      0.659890     Biso  1.000000 C
   C730       1.0     0.411440      0.964750      0.340110     Biso  1.000000 C
   C731       1.0     0.411440      0.964750      0.659890     Biso  1.000000 C
   C732       1.0     0.588560      0.035250      0.340110     Biso  1.000000 C
   C733       1.0     0.911440      0.535250      0.340110     Biso  1.000000 C
   C734       1.0     0.088560      0.464750      0.659890     Biso  1.000000 C
   C735       1.0     0.088560      0.464750      0.340110     Biso  1.000000 C
   C736       1.0     0.911440      0.535250      0.659890     Biso  1.000000 C
   C737       1.0     0.101970      0.544340      0.140610     Biso  1.000000 C
   C738       1.0     0.898030      0.455660      0.859390     Biso  1.000000 C
   C739       1.0     0.898030      0.455660      0.140610     Biso  1.000000 C
   C740       1.0     0.101970      0.544340      0.859390     Biso  1.000000 C
   C741       1.0     0.398030      0.044340      0.859390     Biso  1.000000 C
   C742       1.0     0.601970      0.955660      0.140610     Biso  1.000000 C
   C743       1.0     0.601970      0.955660      0.859390     Biso  1.000000 C
   C744       1.0     0.398030      0.044340      0.140610     Biso  1.000000 C
   C745       1.0     0.601970      0.044340      0.640610     Biso  1.000000 C
   C746       1.0     0.398030      0.955660      0.359390     Biso  1.000000 C
   C747       1.0     0.398030      0.955660      0.640610     Biso  1.000000 C
   C748       1.0     0.601970      0.044340      0.359390     Biso  1.000000 C
   C749       1.0     0.898030      0.544340      0.359390     Biso  1.000000 C
   C750       1.0     0.101970      0.455660      0.640610     Biso  1.000000 C
   C751       1.0     0.101970      0.455660      0.359390     Biso  1.000000 C
   C752       1.0     0.898030      0.544340      0.640610     Biso  1.000000 C
   C753       1.0     0.087840      0.554380      0.127730     Biso  1.000000 C
   C754       1.0     0.912160      0.445620      0.872270     Biso  1.000000 C
   C755       1.0     0.912160      0.445620      0.127730     Biso  1.000000 C
   C756       1.0     0.087840      0.554380      0.872270     Biso  1.000000 C
   C757       1.0     0.412160      0.054380      0.872270     Biso  1.000000 C
   C758       1.0     0.587840      0.945620      0.127730     Biso  1.000000 C
   C759       1.0     0.587840      0.945620      0.872270     Biso  1.000000 C
   C760       1.0     0.412160      0.054380      0.127730     Biso  1.000000 C
   C761       1.0     0.587840      0.054380      0.627730     Biso  1.000000 C
   C762       1.0     0.412160      0.945620      0.372270     Biso  1.000000 C
   C763       1.0     0.412160      0.945620      0.627730     Biso  1.000000 C
   C764       1.0     0.587840      0.054380      0.372270     Biso  1.000000 C
   C765       1.0     0.912160      0.554380      0.372270     Biso  1.000000 C
   C766       1.0     0.087840      0.445620      0.627730     Biso  1.000000 C
   C767       1.0     0.087840      0.445620      0.372270     Biso  1.000000 C
   C768       1.0     0.912160      0.554380      0.627730     Biso  1.000000 C
   C769       1.0     0.059690      0.555090      0.133670     Biso  1.000000 C
   C770       1.0     0.940310      0.444910      0.866330     Biso  1.000000 C
   C771       1.0     0.940310      0.444910      0.133670     Biso  1.000000 C
   C772       1.0     0.059690      0.555090      0.866330     Biso  1.000000 C
   C773       1.0     0.440310      0.055090      0.866330     Biso  1.000000 C
   C774       1.0     0.559690      0.944910      0.133670     Biso  1.000000 C
   C775       1.0     0.559690      0.944910      0.866330     Biso  1.000000 C
   C776       1.0     0.440310      0.055090      0.133670     Biso  1.000000 C
   C777       1.0     0.559690      0.055090      0.633670     Biso  1.000000 C
   C778       1.0     0.440310      0.944910      0.366330     Biso  1.000000 C
   C779       1.0     0.440310      0.944910      0.633670     Biso  1.000000 C
   C780       1.0     0.559690      0.055090      0.366330     Biso  1.000000 C
   C781       1.0     0.940310      0.555090      0.366330     Biso  1.000000 C
   C782       1.0     0.059690      0.444910      0.633670     Biso  1.000000 C
   C783       1.0     0.059690      0.444910      0.366330     Biso  1.000000 C
   C784       1.0     0.940310      0.555090      0.633670     Biso  1.000000 C
   C785       1.0     0.046260      0.546030      0.152890     Biso  1.000000 C
   C786       1.0     0.953740      0.453970      0.847110     Biso  1.000000 C
   C787       1.0     0.953740      0.453970      0.152890     Biso  1.000000 C
   C788       1.0     0.046260      0.546030      0.847110     Biso  1.000000 C
   C789       1.0     0.453740      0.046030      0.847110     Biso  1.000000 C
   C790       1.0     0.546260      0.953970      0.152890     Biso  1.000000 C
   C791       1.0     0.546260      0.953970      0.847110     Biso  1.000000 C
   C792       1.0     0.453740      0.046030      0.152890     Biso  1.000000 C
   C793       1.0     0.546260      0.046030      0.652890     Biso  1.000000 C
   C794       1.0     0.453740      0.953970      0.347110     Biso  1.000000 C
   C795       1.0     0.453740      0.953970      0.652890     Biso  1.000000 C
   C796       1.0     0.546260      0.046030      0.347110     Biso  1.000000 C
   C797       1.0     0.953740      0.546030      0.347110     Biso  1.000000 C
   C798       1.0     0.046260      0.453970      0.652890     Biso  1.000000 C
   C799       1.0     0.046260      0.453970      0.347110     Biso  1.000000 C
   C800       1.0     0.953740      0.546030      0.652890     Biso  1.000000 C
   C801       1.0     0.846800      0.304170      0.077650     Biso  1.000000 C
   C802       1.0     0.153200      0.695830      0.922350     Biso  1.000000 C
   C803       1.0     0.153200      0.695830      0.077650     Biso  1.000000 C
   C804       1.0     0.846800      0.304170      0.922350     Biso  1.000000 C
   C805       1.0     0.653200      0.804170      0.922350     Biso  1.000000 C
   C806       1.0     0.346800      0.195830      0.077650     Biso  1.000000 C
   C807       1.0     0.346800      0.195830      0.922350     Biso  1.000000 C
   C808       1.0     0.653200      0.804170      0.077650     Biso  1.000000 C
   C809       1.0     0.346800      0.804170      0.577650     Biso  1.000000 C
   C810       1.0     0.653200      0.195830      0.422350     Biso  1.000000 C
   C811       1.0     0.653200      0.195830      0.577650     Biso  1.000000 C
   C812       1.0     0.346800      0.804170      0.422350     Biso  1.000000 C
   C813       1.0     0.153200      0.304170      0.422350     Biso  1.000000 C
   C814       1.0     0.846800      0.695830      0.577650     Biso  1.000000 C
   C815       1.0     0.846800      0.695830      0.422350     Biso  1.000000 C
   C816       1.0     0.153200      0.304170      0.577650     Biso  1.000000 C
   C817       1.0     0.837070      0.313940      0.057510     Biso  1.000000 C
   C818       1.0     0.162930      0.686060      0.942490     Biso  1.000000 C
   C819       1.0     0.162930      0.686060      0.057510     Biso  1.000000 C
   C820       1.0     0.837070      0.313940      0.942490     Biso  1.000000 C
   C821       1.0     0.662930      0.813940      0.942490     Biso  1.000000 C
   C822       1.0     0.337070      0.186060      0.057510     Biso  1.000000 C
   C823       1.0     0.337070      0.186060      0.942490     Biso  1.000000 C
   C824       1.0     0.662930      0.813940      0.057510     Biso  1.000000 C
   C825       1.0     0.337070      0.813940      0.557510     Biso  1.000000 C
   C826       1.0     0.662930      0.186060      0.442490     Biso  1.000000 C
   C827       1.0     0.662930      0.186060      0.557510     Biso  1.000000 C
   C828       1.0     0.337070      0.813940      0.442490     Biso  1.000000 C
   C829       1.0     0.162930      0.313940      0.442490     Biso  1.000000 C
   C830       1.0     0.837070      0.686060      0.557510     Biso  1.000000 C
   C831       1.0     0.837070      0.686060      0.442490     Biso  1.000000 C
   C832       1.0     0.162930      0.313940      0.557510     Biso  1.000000 C
   C833       1.0     0.883090      0.320130      0.044500     Biso  1.000000 C
   C834       1.0     0.116910      0.679870      0.955500     Biso  1.000000 C
   C835       1.0     0.116910      0.679870      0.044500     Biso  1.000000 C
   C836       1.0     0.883090      0.320130      0.955500     Biso  1.000000 C
   C837       1.0     0.616910      0.820130      0.955500     Biso  1.000000 C
   C838       1.0     0.383090      0.179870      0.044500     Biso  1.000000 C
   C839       1.0     0.383090      0.179870      0.955500     Biso  1.000000 C
   C840       1.0     0.616910      0.820130      0.044500     Biso  1.000000 C
   C841       1.0     0.383090      0.820130      0.544500     Biso  1.000000 C
   C842       1.0     0.616910      0.179870      0.455500     Biso  1.000000 C
   C843       1.0     0.616910      0.179870      0.544500     Biso  1.000000 C
   C844       1.0     0.383090      0.820130      0.455500     Biso  1.000000 C
   C845       1.0     0.116910      0.320130      0.455500     Biso  1.000000 C
   C846       1.0     0.883090      0.679870      0.544500     Biso  1.000000 C
   C847       1.0     0.883090      0.679870      0.455500     Biso  1.000000 C
   C848       1.0     0.116910      0.320130      0.544500     Biso  1.000000 C
   C849       1.0     0.892900      0.310270      0.064070     Biso  1.000000 C
   C850       1.0     0.107100      0.689730      0.935930     Biso  1.000000 C
   C851       1.0     0.107100      0.689730      0.064070     Biso  1.000000 C
   C852       1.0     0.892900      0.310270      0.935930     Biso  1.000000 C
   C853       1.0     0.607100      0.810270      0.935930     Biso  1.000000 C
   C854       1.0     0.392900      0.189730      0.064070     Biso  1.000000 C
   C855       1.0     0.392900      0.189730      0.935930     Biso  1.000000 C
   C856       1.0     0.607100      0.810270      0.064070     Biso  1.000000 C
   C857       1.0     0.392900      0.810270      0.564070     Biso  1.000000 C
   C858       1.0     0.607100      0.189730      0.435930     Biso  1.000000 C
   C859       1.0     0.607100      0.189730      0.564070     Biso  1.000000 C
   C860       1.0     0.392900      0.810270      0.435930     Biso  1.000000 C
   C861       1.0     0.107100      0.310270      0.435930     Biso  1.000000 C
   C862       1.0     0.892900      0.689730      0.564070     Biso  1.000000 C
   C863       1.0     0.892900      0.689730      0.435930     Biso  1.000000 C
   C864       1.0     0.107100      0.310270      0.564070     Biso  1.000000 C
   C865       1.0     0.000340      0.239640      0.200690     Biso  1.000000 C
   C866       1.0     0.999660      0.760360      0.799310     Biso  1.000000 C
   C867       1.0     0.999660      0.760360      0.200690     Biso  1.000000 C
   C868       1.0     0.000340      0.239640      0.799310     Biso  1.000000 C
   C869       1.0     0.499660      0.739640      0.799310     Biso  1.000000 C
   C870       1.0     0.500340      0.260360      0.200690     Biso  1.000000 C
   C871       1.0     0.500340      0.260360      0.799310     Biso  1.000000 C
   C872       1.0     0.499660      0.739640      0.200690     Biso  1.000000 C
   C873       1.0     0.500340      0.739640      0.700690     Biso  1.000000 C
   C874       1.0     0.499660      0.260360      0.299310     Biso  1.000000 C
   C875       1.0     0.499660      0.260360      0.700690     Biso  1.000000 C
   C876       1.0     0.500340      0.739640      0.299310     Biso  1.000000 C
   C877       1.0     0.999660      0.239640      0.299310     Biso  1.000000 C
   C878       1.0     0.000340      0.760360      0.700690     Biso  1.000000 C
   C879       1.0     0.000340      0.760360      0.299310     Biso  1.000000 C
   C880       1.0     0.999660      0.239640      0.700690     Biso  1.000000 C
   C881       1.0     0.987930      0.248440      0.179190     Biso  1.000000 C
   C882       1.0     0.012070      0.751560      0.820810     Biso  1.000000 C
   C883       1.0     0.012070      0.751560      0.179190     Biso  1.000000 C
   C884       1.0     0.987930      0.248440      0.820810     Biso  1.000000 C
   C885       1.0     0.512070      0.748440      0.820810     Biso  1.000000 C
   C886       1.0     0.487930      0.251560      0.179190     Biso  1.000000 C
   C887       1.0     0.487930      0.251560      0.820810     Biso  1.000000 C
   C888       1.0     0.512070      0.748440      0.179190     Biso  1.000000 C
   C889       1.0     0.487930      0.748440      0.679190     Biso  1.000000 C
   C890       1.0     0.512070      0.251560      0.320810     Biso  1.000000 C
   C891       1.0     0.512070      0.251560      0.679190     Biso  1.000000 C
   C892       1.0     0.487930      0.748440      0.320810     Biso  1.000000 C
   C893       1.0     0.012070      0.248440      0.320810     Biso  1.000000 C
   C894       1.0     0.987930      0.751560      0.679190     Biso  1.000000 C
   C895       1.0     0.987930      0.751560      0.320810     Biso  1.000000 C
   C896       1.0     0.012070      0.248440      0.679190     Biso  1.000000 C
   C897       1.0     0.944260      0.242530      0.202930     Biso  1.000000 C
   C898       1.0     0.055740      0.757470      0.797070     Biso  1.000000 C
   C899       1.0     0.055740      0.757470      0.202930     Biso  1.000000 C
   C900       1.0     0.944260      0.242530      0.797070     Biso  1.000000 C
   C901       1.0     0.555740      0.742530      0.797070     Biso  1.000000 C
   C902       1.0     0.444260      0.257470      0.202930     Biso  1.000000 C
   C903       1.0     0.444260      0.257470      0.797070     Biso  1.000000 C
   C904       1.0     0.555740      0.742530      0.202930     Biso  1.000000 C
   C905       1.0     0.444260      0.742530      0.702930     Biso  1.000000 C
   C906       1.0     0.555740      0.257470      0.297070     Biso  1.000000 C
   C907       1.0     0.555740      0.257470      0.702930     Biso  1.000000 C
   C908       1.0     0.444260      0.742530      0.297070     Biso  1.000000 C
   C909       1.0     0.055740      0.242530      0.297070     Biso  1.000000 C
   C910       1.0     0.944260      0.757470      0.702930     Biso  1.000000 C
   C911       1.0     0.944260      0.757470      0.297070     Biso  1.000000 C
   C912       1.0     0.055740      0.242530      0.702930     Biso  1.000000 C
   C913       1.0     0.956660      0.233860      0.224880     Biso  1.000000 C
   C914       1.0     0.043340      0.766140      0.775120     Biso  1.000000 C
   C915       1.0     0.043340      0.766140      0.224880     Biso  1.000000 C
   C916       1.0     0.956660      0.233860      0.775120     Biso  1.000000 C
   C917       1.0     0.543340      0.733860      0.775120     Biso  1.000000 C
   C918       1.0     0.456660      0.266140      0.224880     Biso  1.000000 C
   C919       1.0     0.456660      0.266140      0.775120     Biso  1.000000 C
   C920       1.0     0.543340      0.733860      0.224880     Biso  1.000000 C
   C921       1.0     0.456660      0.733860      0.724880     Biso  1.000000 C
   C922       1.0     0.543340      0.266140      0.275120     Biso  1.000000 C
   C923       1.0     0.543340      0.266140      0.724880     Biso  1.000000 C
   C924       1.0     0.456660      0.733860      0.275120     Biso  1.000000 C
   C925       1.0     0.043340      0.233860      0.275120     Biso  1.000000 C
   C926       1.0     0.956660      0.766140      0.724880     Biso  1.000000 C
   C927       1.0     0.956660      0.766140      0.275120     Biso  1.000000 C
   C928       1.0     0.043340      0.233860      0.724880     Biso  1.000000 C
   C929       1.0     0.926020      0.266660      0.174680     Biso  1.000000 C
   C930       1.0     0.073980      0.733340      0.825320     Biso  1.000000 C
   C931       1.0     0.073980      0.733340      0.174680     Biso  1.000000 C
   C932       1.0     0.926020      0.266660      0.825320     Biso  1.000000 C
   C933       1.0     0.573980      0.766660      0.825320     Biso  1.000000 C
   C934       1.0     0.426020      0.233340      0.174680     Biso  1.000000 C
   C935       1.0     0.426020      0.233340      0.825320     Biso  1.000000 C
   C936       1.0     0.573980      0.766660      0.174680     Biso  1.000000 C
   C937       1.0     0.426020      0.766660      0.674680     Biso  1.000000 C
   C938       1.0     0.573980      0.233340      0.325320     Biso  1.000000 C
   C939       1.0     0.573980      0.233340      0.674680     Biso  1.000000 C
   C940       1.0     0.426020      0.766660      0.325320     Biso  1.000000 C
   C941       1.0     0.073980      0.266660      0.325320     Biso  1.000000 C
   C942       1.0     0.926020      0.733340      0.674680     Biso  1.000000 C
   C943       1.0     0.926020      0.733340      0.325320     Biso  1.000000 C
   C944       1.0     0.073980      0.266660      0.674680     Biso  1.000000 C
   C945       1.0     0.913580      0.275920      0.155150     Biso  1.000000 C
   C946       1.0     0.086420      0.724080      0.844850     Biso  1.000000 C
   C947       1.0     0.086420      0.724080      0.155150     Biso  1.000000 C
   C948       1.0     0.913580      0.275920      0.844850     Biso  1.000000 C
   C949       1.0     0.586420      0.775920      0.844850     Biso  1.000000 C
   C950       1.0     0.413580      0.224080      0.155150     Biso  1.000000 C
   C951       1.0     0.413580      0.224080      0.844850     Biso  1.000000 C
   C952       1.0     0.586420      0.775920      0.155150     Biso  1.000000 C
   C953       1.0     0.413580      0.775920      0.655150     Biso  1.000000 C
   C954       1.0     0.586420      0.224080      0.344850     Biso  1.000000 C
   C955       1.0     0.586420      0.224080      0.655150     Biso  1.000000 C
   C956       1.0     0.413580      0.775920      0.344850     Biso  1.000000 C
   C957       1.0     0.086420      0.275920      0.344850     Biso  1.000000 C
   C958       1.0     0.913580      0.724080      0.655150     Biso  1.000000 C
   C959       1.0     0.913580      0.724080      0.344850     Biso  1.000000 C
   C960       1.0     0.086420      0.275920      0.655150     Biso  1.000000 C
   C961       1.0     0.942140      0.271640      0.102860     Biso  1.000000 C
   C962       1.0     0.057860      0.728360      0.897140     Biso  1.000000 C
   C963       1.0     0.057860      0.728360      0.102860     Biso  1.000000 C
   C964       1.0     0.942140      0.271640      0.897140     Biso  1.000000 C
   C965       1.0     0.557860      0.771640      0.897140     Biso  1.000000 C
   C966       1.0     0.442140      0.228360      0.102860     Biso  1.000000 C
   C967       1.0     0.442140      0.228360      0.897140     Biso  1.000000 C
   C968       1.0     0.557860      0.771640      0.102860     Biso  1.000000 C
   C969       1.0     0.442140      0.771640      0.602860     Biso  1.000000 C
   C970       1.0     0.557860      0.228360      0.397140     Biso  1.000000 C
   C971       1.0     0.557860      0.228360      0.602860     Biso  1.000000 C
   C972       1.0     0.442140      0.771640      0.397140     Biso  1.000000 C
   C973       1.0     0.057860      0.271640      0.397140     Biso  1.000000 C
   C974       1.0     0.942140      0.728360      0.602860     Biso  1.000000 C
   C975       1.0     0.942140      0.728360      0.397140     Biso  1.000000 C
   C976       1.0     0.057860      0.271640      0.602860     Biso  1.000000 C
   C977       1.0     0.954390      0.262230      0.122130     Biso  1.000000 C
   C978       1.0     0.045610      0.737770      0.877870     Biso  1.000000 C
   C979       1.0     0.045610      0.737770      0.122130     Biso  1.000000 C
   C980       1.0     0.954390      0.262230      0.877870     Biso  1.000000 C
   C981       1.0     0.545610      0.762230      0.877870     Biso  1.000000 C
   C982       1.0     0.454390      0.237770      0.122130     Biso  1.000000 C
   C983       1.0     0.454390      0.237770      0.877870     Biso  1.000000 C
   C984       1.0     0.545610      0.762230      0.122130     Biso  1.000000 C
   C985       1.0     0.454390      0.762230      0.622130     Biso  1.000000 C
   C986       1.0     0.545610      0.237770      0.377870     Biso  1.000000 C
   C987       1.0     0.545610      0.237770      0.622130     Biso  1.000000 C
   C988       1.0     0.454390      0.762230      0.377870     Biso  1.000000 C
   C989       1.0     0.045610      0.262230      0.377870     Biso  1.000000 C
   C990       1.0     0.954390      0.737770      0.622130     Biso  1.000000 C
   C991       1.0     0.954390      0.737770      0.377870     Biso  1.000000 C
   C992       1.0     0.045610      0.262230      0.622130     Biso  1.000000 C
   C993       1.0     0.429670      0.683610      0.148340     Biso  1.000000 C
   C994       1.0     0.570330      0.316390      0.851660     Biso  1.000000 C
   C995       1.0     0.570330      0.316390      0.148340     Biso  1.000000 C
   C996       1.0     0.429670      0.683610      0.851660     Biso  1.000000 C
   C997       1.0     0.070330      0.183610      0.851660     Biso  1.000000 C
   C998       1.0     0.929670      0.816390      0.148340     Biso  1.000000 C
   C999       1.0     0.929670      0.816390      0.851660     Biso  1.000000 C
   C1000      1.0     0.070330      0.183610      0.148340     Biso  1.000000 C
   C1001      1.0     0.929670      0.183610      0.648340     Biso  1.000000 C
   C1002      1.0     0.070330      0.816390      0.351660     Biso  1.000000 C
   C1003      1.0     0.070330      0.816390      0.648340     Biso  1.000000 C
   C1004      1.0     0.929670      0.183610      0.351660     Biso  1.000000 C
   C1005      1.0     0.570330      0.683610      0.351660     Biso  1.000000 C
   C1006      1.0     0.429670      0.316390      0.648340     Biso  1.000000 C
   C1007      1.0     0.429670      0.316390      0.351660     Biso  1.000000 C
   C1008      1.0     0.570330      0.683610      0.648340     Biso  1.000000 C
   C1009      1.0     0.409790      0.677060      0.129710     Biso  1.000000 C
   C1010      1.0     0.590210      0.322940      0.870290     Biso  1.000000 C
   C1011      1.0     0.590210      0.322940      0.129710     Biso  1.000000 C
   C1012      1.0     0.409790      0.677060      0.870290     Biso  1.000000 C
   C1013      1.0     0.090210      0.177060      0.870290     Biso  1.000000 C
   C1014      1.0     0.909790      0.822940      0.129710     Biso  1.000000 C
   C1015      1.0     0.909790      0.822940      0.870290     Biso  1.000000 C
   C1016      1.0     0.090210      0.177060      0.129710     Biso  1.000000 C
   C1017      1.0     0.909790      0.177060      0.629710     Biso  1.000000 C
   C1018      1.0     0.090210      0.822940      0.370290     Biso  1.000000 C
   C1019      1.0     0.090210      0.822940      0.629710     Biso  1.000000 C
   C1020      1.0     0.909790      0.177060      0.370290     Biso  1.000000 C
   C1021      1.0     0.590210      0.677060      0.370290     Biso  1.000000 C
   C1022      1.0     0.409790      0.322940      0.629710     Biso  1.000000 C
   C1023      1.0     0.409790      0.322940      0.370290     Biso  1.000000 C
   C1024      1.0     0.590210      0.677060      0.629710     Biso  1.000000 C
   C1025      1.0     0.382230      0.678630      0.138420     Biso  1.000000 C
   C1026      1.0     0.617770      0.321370      0.861580     Biso  1.000000 C
   C1027      1.0     0.617770      0.321370      0.138420     Biso  1.000000 C
   C1028      1.0     0.382230      0.678630      0.861580     Biso  1.000000 C
   C1029      1.0     0.117770      0.178630      0.861580     Biso  1.000000 C
   C1030      1.0     0.882230      0.821370      0.138420     Biso  1.000000 C
   C1031      1.0     0.882230      0.821370      0.861580     Biso  1.000000 C
   C1032      1.0     0.117770      0.178630      0.138420     Biso  1.000000 C
   C1033      1.0     0.882230      0.178630      0.638420     Biso  1.000000 C
   C1034      1.0     0.117770      0.821370      0.361580     Biso  1.000000 C
   C1035      1.0     0.117770      0.821370      0.638420     Biso  1.000000 C
   C1036      1.0     0.882230      0.178630      0.361580     Biso  1.000000 C
   C1037      1.0     0.617770      0.678630      0.361580     Biso  1.000000 C
   C1038      1.0     0.382230      0.321370      0.638420     Biso  1.000000 C
   C1039      1.0     0.382230      0.321370      0.361580     Biso  1.000000 C
   C1040      1.0     0.617770      0.678630      0.638420     Biso  1.000000 C
   C1041      1.0     0.375030      0.686810      0.165830     Biso  1.000000 C
   C1042      1.0     0.624970      0.313190      0.834170     Biso  1.000000 C
   C1043      1.0     0.624970      0.313190      0.165830     Biso  1.000000 C
   C1044      1.0     0.375030      0.686810      0.834170     Biso  1.000000 C
   C1045      1.0     0.124970      0.186810      0.834170     Biso  1.000000 C
   C1046      1.0     0.875030      0.813190      0.165830     Biso  1.000000 C
   C1047      1.0     0.875030      0.813190      0.834170     Biso  1.000000 C
   C1048      1.0     0.124970      0.186810      0.165830     Biso  1.000000 C
   C1049      1.0     0.875030      0.186810      0.665830     Biso  1.000000 C
   C1050      1.0     0.124970      0.813190      0.334170     Biso  1.000000 C
   C1051      1.0     0.124970      0.813190      0.665830     Biso  1.000000 C
   C1052      1.0     0.875030      0.186810      0.334170     Biso  1.000000 C
   C1053      1.0     0.624970      0.686810      0.334170     Biso  1.000000 C
   C1054      1.0     0.375030      0.313190      0.665830     Biso  1.000000 C
   C1055      1.0     0.375030      0.313190      0.334170     Biso  1.000000 C
   C1056      1.0     0.624970      0.686810      0.665830     Biso  1.000000 C
   C1057      1.0     0.394840      0.693290      0.184720     Biso  1.000000 C
   C1058      1.0     0.605160      0.306710      0.815280     Biso  1.000000 C
   C1059      1.0     0.605160      0.306710      0.184720     Biso  1.000000 C
   C1060      1.0     0.394840      0.693290      0.815280     Biso  1.000000 C
   C1061      1.0     0.105160      0.193290      0.815280     Biso  1.000000 C
   C1062      1.0     0.894840      0.806710      0.184720     Biso  1.000000 C
   C1063      1.0     0.894840      0.806710      0.815280     Biso  1.000000 C
   C1064      1.0     0.105160      0.193290      0.184720     Biso  1.000000 C
   C1065      1.0     0.894840      0.193290      0.684720     Biso  1.000000 C
   C1066      1.0     0.105160      0.806710      0.315280     Biso  1.000000 C
   C1067      1.0     0.105160      0.806710      0.684720     Biso  1.000000 C
   C1068      1.0     0.894840      0.193290      0.315280     Biso  1.000000 C
   C1069      1.0     0.605160      0.693290      0.315280     Biso  1.000000 C
   C1070      1.0     0.394840      0.306710      0.684720     Biso  1.000000 C
   C1071      1.0     0.394840      0.306710      0.315280     Biso  1.000000 C
   C1072      1.0     0.605160      0.693290      0.684720     Biso  1.000000 C
   N1         1.0     0.360900      0.672710      0.118660     Biso  1.000000 N
   N2         1.0     0.639100      0.327290      0.881340     Biso  1.000000 N
   N3         1.0     0.639100      0.327290      0.118660     Biso  1.000000 N
   N4         1.0     0.360900      0.672710      0.881340     Biso  1.000000 N
   N5         1.0     0.139100      0.172710      0.881340     Biso  1.000000 N
   N6         1.0     0.860900      0.827290      0.118660     Biso  1.000000 N
   N7         1.0     0.860900      0.827290      0.881340     Biso  1.000000 N
   N8         1.0     0.139100      0.172710      0.118660     Biso  1.000000 N
   N9         1.0     0.860900      0.172710      0.618660     Biso  1.000000 N
   N10        1.0     0.139100      0.827290      0.381340     Biso  1.000000 N
   N11        1.0     0.139100      0.827290      0.618660     Biso  1.000000 N
   N12        1.0     0.860900      0.172710      0.381340     Biso  1.000000 N
   N13        1.0     0.639100      0.672710      0.381340     Biso  1.000000 N
   N14        1.0     0.360900      0.327290      0.618660     Biso  1.000000 N
   N15        1.0     0.360900      0.327290      0.381340     Biso  1.000000 N
   N16        1.0     0.639100      0.672710      0.618660     Biso  1.000000 N
   N17        1.0     0.102650      0.563430      0.107970     Biso  1.000000 N
   N18        1.0     0.897350      0.436570      0.892030     Biso  1.000000 N
   N19        1.0     0.897350      0.436570      0.107970     Biso  1.000000 N
   N20        1.0     0.102650      0.563430      0.892030     Biso  1.000000 N
   N21        1.0     0.397350      0.063430      0.892030     Biso  1.000000 N
   N22        1.0     0.602650      0.936570      0.107970     Biso  1.000000 N
   N23        1.0     0.602650      0.936570      0.892030     Biso  1.000000 N
   N24        1.0     0.397350      0.063430      0.107970     Biso  1.000000 N
   N25        1.0     0.602650      0.063430      0.607970     Biso  1.000000 N
   N26        1.0     0.397350      0.936570      0.392030     Biso  1.000000 N
   N27        1.0     0.397350      0.936570      0.607970     Biso  1.000000 N
   N28        1.0     0.602650      0.063430      0.392030     Biso  1.000000 N
   N29        1.0     0.897350      0.563430      0.392030     Biso  1.000000 N
   N30        1.0     0.102650      0.436570      0.607970     Biso  1.000000 N
   N31        1.0     0.102650      0.436570      0.392030     Biso  1.000000 N
   N32        1.0     0.897350      0.563430      0.607970     Biso  1.000000 N
   N33        1.0     0.090270      0.711870      0.098470     Biso  1.000000 N
   N34        1.0     0.909730      0.288130      0.901530     Biso  1.000000 N
   N35        1.0     0.909730      0.288130      0.098470     Biso  1.000000 N
   N36        1.0     0.090270      0.711870      0.901530     Biso  1.000000 N
   N37        1.0     0.409730      0.211870      0.901530     Biso  1.000000 N
   N38        1.0     0.590270      0.788130      0.098470     Biso  1.000000 N
   N39        1.0     0.590270      0.788130      0.901530     Biso  1.000000 N
   N40        1.0     0.409730      0.211870      0.098470     Biso  1.000000 N
   N41        1.0     0.590270      0.211870      0.598470     Biso  1.000000 N
   N42        1.0     0.409730      0.788130      0.401530     Biso  1.000000 N
   N43        1.0     0.409730      0.788130      0.598470     Biso  1.000000 N
   N44        1.0     0.590270      0.211870      0.401530     Biso  1.000000 N
   N45        1.0     0.909730      0.711870      0.401530     Biso  1.000000 N
   N46        1.0     0.090270      0.288130      0.598470     Biso  1.000000 N
   N47        1.0     0.090270      0.288130      0.401530     Biso  1.000000 N
   N48        1.0     0.909730      0.711870      0.598470     Biso  1.000000 N
   F1         1.0     0.613020      0.298620      0.210420     Biso  1.000000 F
   F2         1.0     0.386980      0.701380      0.789580     Biso  1.000000 F
   F3         1.0     0.386980      0.701380      0.210420     Biso  1.000000 F
   F4         1.0     0.613020      0.298620      0.789580     Biso  1.000000 F
   F5         1.0     0.886980      0.798620      0.789580     Biso  1.000000 F
   F6         1.0     0.113020      0.201380      0.210420     Biso  1.000000 F
   F7         1.0     0.113020      0.201380      0.789580     Biso  1.000000 F
   F8         1.0     0.886980      0.798620      0.210420     Biso  1.000000 F
   F9         1.0     0.113020      0.798620      0.710420     Biso  1.000000 F
   F10        1.0     0.886980      0.201380      0.289580     Biso  1.000000 F
   F11        1.0     0.886980      0.201380      0.710420     Biso  1.000000 F
   F12        1.0     0.113020      0.798620      0.289580     Biso  1.000000 F
   F13        1.0     0.386980      0.298620      0.289580     Biso  1.000000 F
   F14        1.0     0.613020      0.701380      0.710420     Biso  1.000000 F
   F15        1.0     0.613020      0.701380      0.289580     Biso  1.000000 F
   F16        1.0     0.386980      0.298620      0.710420     Biso  1.000000 F
   F17        1.0     0.473390      0.244520      0.895130     Biso  1.000000 F
   F18        1.0     0.526610      0.755480      0.104870     Biso  1.000000 F
   F19        1.0     0.526610      0.755480      0.895130     Biso  1.000000 F
   F20        1.0     0.473390      0.244520      0.104870     Biso  1.000000 F
   F21        1.0     0.026610      0.744520      0.104870     Biso  1.000000 F
   F22        1.0     0.973390      0.255480      0.895130     Biso  1.000000 F
   F23        1.0     0.973390      0.255480      0.104870     Biso  1.000000 F
   F24        1.0     0.026610      0.744520      0.895130     Biso  1.000000 F
   F25        1.0     0.973390      0.744520      0.395130     Biso  1.000000 F
   F26        1.0     0.026610      0.255480      0.604870     Biso  1.000000 F
   F27        1.0     0.026610      0.255480      0.395130     Biso  1.000000 F
   F28        1.0     0.973390      0.744520      0.604870     Biso  1.000000 F
   F29        1.0     0.526610      0.244520      0.604870     Biso  1.000000 F
   F30        1.0     0.473390      0.755480      0.395130     Biso  1.000000 F
   F31        1.0     0.473390      0.755480      0.604870     Biso  1.000000 F
   F32        1.0     0.526610      0.244520      0.395130     Biso  1.000000 F
   F33        1.0     0.102890      0.474450      0.328690     Biso  1.000000 F
   F34        1.0     0.897110      0.525550      0.671310     Biso  1.000000 F
   F35        1.0     0.897110      0.525550      0.328690     Biso  1.000000 F
   F36        1.0     0.102890      0.474450      0.671310     Biso  1.000000 F
   F37        1.0     0.397110      0.974450      0.671310     Biso  1.000000 F
   F38        1.0     0.602890      0.025550      0.328690     Biso  1.000000 F
   F39        1.0     0.602890      0.025550      0.671310     Biso  1.000000 F
   F40        1.0     0.397110      0.974450      0.328690     Biso  1.000000 F
   F41        1.0     0.602890      0.974450      0.828690     Biso  1.000000 F
   F42        1.0     0.397110      0.025550      0.171310     Biso  1.000000 F
   F43        1.0     0.397110      0.025550      0.828690     Biso  1.000000 F
   F44        1.0     0.602890      0.974450      0.171310     Biso  1.000000 F
   F45        1.0     0.897110      0.474450      0.171310     Biso  1.000000 F
   F46        1.0     0.102890      0.525550      0.828690     Biso  1.000000 F
   F47        1.0     0.102890      0.525550      0.171310     Biso  1.000000 F
   F48        1.0     0.897110      0.474450      0.828690     Biso  1.000000 F
   F49        1.0     0.147280      0.431360      0.570170     Biso  1.000000 F
   F50        1.0     0.852720      0.568640      0.429830     Biso  1.000000 F
   F51        1.0     0.852720      0.568640      0.570170     Biso  1.000000 F
   F52        1.0     0.147280      0.431360      0.429830     Biso  1.000000 F
   F53        1.0     0.352720      0.931360      0.429830     Biso  1.000000 F
   F54        1.0     0.647280      0.068640      0.570170     Biso  1.000000 F
   F55        1.0     0.647280      0.068640      0.429830     Biso  1.000000 F
   F56        1.0     0.352720      0.931360      0.570170     Biso  1.000000 F
   F57        1.0     0.647280      0.931360      0.070170     Biso  1.000000 F
   F58        1.0     0.352720      0.068640      0.929830     Biso  1.000000 F
   F59        1.0     0.352720      0.068640      0.070170     Biso  1.000000 F
   F60        1.0     0.647280      0.931360      0.929830     Biso  1.000000 F
   F61        1.0     0.852720      0.431360      0.929830     Biso  1.000000 F
   F62        1.0     0.147280      0.568640      0.070170     Biso  1.000000 F
   F63        1.0     0.147280      0.568640      0.929830     Biso  1.000000 F
   F64        1.0     0.852720      0.431360      0.070170     Biso  1.000000 F
   F65        1.0     0.171190      0.296590      0.593640     Biso  1.000000 F
   F66        1.0     0.828810      0.703410      0.406360     Biso  1.000000 F
   F67        1.0     0.828810      0.703410      0.593640     Biso  1.000000 F
   F68        1.0     0.171190      0.296590      0.406360     Biso  1.000000 F
   F69        1.0     0.328810      0.796590      0.406360     Biso  1.000000 F
   F70        1.0     0.671190      0.203410      0.593640     Biso  1.000000 F
   F71        1.0     0.671190      0.203410      0.406360     Biso  1.000000 F
   F72        1.0     0.328810      0.796590      0.593640     Biso  1.000000 F
   F73        1.0     0.671190      0.796590      0.093640     Biso  1.000000 F
   F74        1.0     0.328810      0.203410      0.906360     Biso  1.000000 F
   F75        1.0     0.328810      0.203410      0.093640     Biso  1.000000 F
   F76        1.0     0.671190      0.796590      0.906360     Biso  1.000000 F
   F77        1.0     0.828810      0.296590      0.906360     Biso  1.000000 F
   F78        1.0     0.171190      0.703410      0.093640     Biso  1.000000 F
   F79        1.0     0.171190      0.703410      0.906360     Biso  1.000000 F
   F80        1.0     0.828810      0.296590      0.093640     Biso  1.000000 F
   F81        1.0     0.637190      0.639620      0.567330     Biso  1.000000 F
   F82        1.0     0.362810      0.360380      0.432670     Biso  1.000000 F
   F83        1.0     0.362810      0.360380      0.567330     Biso  1.000000 F
   F84        1.0     0.637190      0.639620      0.432670     Biso  1.000000 F
   F85        1.0     0.862810      0.139620      0.432670     Biso  1.000000 F
   F86        1.0     0.137190      0.860380      0.567330     Biso  1.000000 F
   F87        1.0     0.137190      0.860380      0.432670     Biso  1.000000 F
   F88        1.0     0.862810      0.139620      0.567330     Biso  1.000000 F
   F89        1.0     0.137190      0.139620      0.067330     Biso  1.000000 F
   F90        1.0     0.862810      0.860380      0.932670     Biso  1.000000 F
   F91        1.0     0.862810      0.860380      0.067330     Biso  1.000000 F
   F92        1.0     0.137190      0.139620      0.932670     Biso  1.000000 F
   F93        1.0     0.362810      0.639620      0.932670     Biso  1.000000 F
   F94        1.0     0.637190      0.360380      0.067330     Biso  1.000000 F
   F95        1.0     0.637190      0.360380      0.932670     Biso  1.000000 F
   F96        1.0     0.362810      0.639620      0.067330     Biso  1.000000 F
   H1         1.0     0.246640      0.642410      0.068420     Biso  1.000000 H
   H2         1.0     0.753360      0.357590      0.931580     Biso  1.000000 H
   H3         1.0     0.753360      0.357590      0.068420     Biso  1.000000 H
   H4         1.0     0.246640      0.642410      0.931580     Biso  1.000000 H
   H5         1.0     0.253360      0.142410      0.931580     Biso  1.000000 H
   H6         1.0     0.746640      0.857590      0.068420     Biso  1.000000 H
   H7         1.0     0.746640      0.857590      0.931580     Biso  1.000000 H
   H8         1.0     0.253360      0.142410      0.068420     Biso  1.000000 H
   H9         1.0     0.746640      0.142410      0.568420     Biso  1.000000 H
   H10        1.0     0.253360      0.857590      0.431580     Biso  1.000000 H
   H11        1.0     0.253360      0.857590      0.568420     Biso  1.000000 H
   H12        1.0     0.746640      0.142410      0.431580     Biso  1.000000 H
   H13        1.0     0.753360      0.642410      0.431580     Biso  1.000000 H
   H14        1.0     0.246640      0.357590      0.568420     Biso  1.000000 H
   H15        1.0     0.246640      0.357590      0.431580     Biso  1.000000 H
   H16        1.0     0.753360      0.642410      0.568420     Biso  1.000000 H
   H17        1.0     0.381960      0.657980      0.098980     Biso  1.000000 H
   H18        1.0     0.618040      0.342020      0.901020     Biso  1.000000 H
   H19        1.0     0.618040      0.342020      0.098980     Biso  1.000000 H
   H20        1.0     0.381960      0.657980      0.901020     Biso  1.000000 H
   H21        1.0     0.118040      0.157980      0.901020     Biso  1.000000 H
   H22        1.0     0.881960      0.842020      0.098980     Biso  1.000000 H
   H23        1.0     0.881960      0.842020      0.901020     Biso  1.000000 H
   H24        1.0     0.118040      0.157980      0.098980     Biso  1.000000 H
   H25        1.0     0.881960      0.157980      0.598980     Biso  1.000000 H
   H26        1.0     0.118040      0.842020      0.401020     Biso  1.000000 H
   H27        1.0     0.118040      0.842020      0.598980     Biso  1.000000 H
   H28        1.0     0.881960      0.157980      0.401020     Biso  1.000000 H
   H29        1.0     0.618040      0.657980      0.401020     Biso  1.000000 H
   H30        1.0     0.381960      0.342020      0.598980     Biso  1.000000 H
   H31        1.0     0.381960      0.342020      0.401020     Biso  1.000000 H
   H32        1.0     0.618040      0.657980      0.598980     Biso  1.000000 H
   H33        1.0     0.075170      0.577420      0.111820     Biso  1.000000 H
   H34        1.0     0.924830      0.422580      0.888180     Biso  1.000000 H
   H35        1.0     0.924830      0.422580      0.111820     Biso  1.000000 H
   H36        1.0     0.075170      0.577420      0.888180     Biso  1.000000 H
   H37        1.0     0.424830      0.077420      0.888180     Biso  1.000000 H
   H38        1.0     0.575170      0.922580      0.111820     Biso  1.000000 H
   H39        1.0     0.575170      0.922580      0.888180     Biso  1.000000 H
   H40        1.0     0.424830      0.077420      0.111820     Biso  1.000000 H
   H41        1.0     0.575170      0.077420      0.611820     Biso  1.000000 H
   H42        1.0     0.424830      0.922580      0.388180     Biso  1.000000 H
   H43        1.0     0.424830      0.922580      0.611820     Biso  1.000000 H
   H44        1.0     0.575170      0.077420      0.388180     Biso  1.000000 H
   H45        1.0     0.924830      0.577420      0.388180     Biso  1.000000 H
   H46        1.0     0.075170      0.422580      0.611820     Biso  1.000000 H
   H47        1.0     0.075170      0.422580      0.388180     Biso  1.000000 H
   H48        1.0     0.924830      0.577420      0.611820     Biso  1.000000 H
   H49        1.0     0.169520      0.618370      0.068470     Biso  1.000000 H
   H50        1.0     0.830480      0.381630      0.931530     Biso  1.000000 H
   H51        1.0     0.830480      0.381630      0.068470     Biso  1.000000 H
   H52        1.0     0.169520      0.618370      0.931530     Biso  1.000000 H
   H53        1.0     0.330480      0.118370      0.931530     Biso  1.000000 H
   H54        1.0     0.669520      0.881630      0.068470     Biso  1.000000 H
   H55        1.0     0.669520      0.881630      0.931530     Biso  1.000000 H
   H56        1.0     0.330480      0.118370      0.068470     Biso  1.000000 H
   H57        1.0     0.669520      0.118370      0.568470     Biso  1.000000 H
   H58        1.0     0.330480      0.881630      0.431530     Biso  1.000000 H
   H59        1.0     0.330480      0.881630      0.568470     Biso  1.000000 H
   H60        1.0     0.669520      0.118370      0.431530     Biso  1.000000 H
   H61        1.0     0.830480      0.618370      0.431530     Biso  1.000000 H
   H62        1.0     0.169520      0.381630      0.568470     Biso  1.000000 H
   H63        1.0     0.169520      0.381630      0.431530     Biso  1.000000 H
   H64        1.0     0.830480      0.618370      0.568470     Biso  1.000000 H
   H65        1.0     0.168250      0.658350      0.068480     Biso  1.000000 H
   H66        1.0     0.831750      0.341650      0.931520     Biso  1.000000 H
   H67        1.0     0.831750      0.341650      0.068480     Biso  1.000000 H
   H68        1.0     0.168250      0.658350      0.931520     Biso  1.000000 H
   H69        1.0     0.331750      0.158350      0.931520     Biso  1.000000 H
   H70        1.0     0.668250      0.841650      0.068480     Biso  1.000000 H
   H71        1.0     0.668250      0.841650      0.931520     Biso  1.000000 H
   H72        1.0     0.331750      0.158350      0.068480     Biso  1.000000 H
   H73        1.0     0.668250      0.158350      0.568480     Biso  1.000000 H
   H74        1.0     0.331750      0.841650      0.431520     Biso  1.000000 H
   H75        1.0     0.331750      0.841650      0.568480     Biso  1.000000 H
   H76        1.0     0.668250      0.158350      0.431520     Biso  1.000000 H
   H77        1.0     0.831750      0.658350      0.431520     Biso  1.000000 H
   H78        1.0     0.168250      0.341650      0.568480     Biso  1.000000 H
   H79        1.0     0.168250      0.341650      0.431520     Biso  1.000000 H
   H80        1.0     0.831750      0.658350      0.568480     Biso  1.000000 H
   H81        1.0     0.128870      0.712770      0.120400     Biso  1.000000 H
   H82        1.0     0.871130      0.287230      0.879600     Biso  1.000000 H
   H83        1.0     0.871130      0.287230      0.120400     Biso  1.000000 H
   H84        1.0     0.128870      0.712770      0.879600     Biso  1.000000 H
   H85        1.0     0.371130      0.212770      0.879600     Biso  1.000000 H
   H86        1.0     0.628870      0.787230      0.120400     Biso  1.000000 H
   H87        1.0     0.628870      0.787230      0.879600     Biso  1.000000 H
   H88        1.0     0.371130      0.212770      0.120400     Biso  1.000000 H
   H89        1.0     0.628870      0.212770      0.620400     Biso  1.000000 H
   H90        1.0     0.371130      0.787230      0.379600     Biso  1.000000 H
   H91        1.0     0.371130      0.787230      0.620400     Biso  1.000000 H
   H92        1.0     0.628870      0.212770      0.379600     Biso  1.000000 H
   H93        1.0     0.871130      0.712770      0.379600     Biso  1.000000 H
   H94        1.0     0.128870      0.287230      0.620400     Biso  1.000000 H
   H95        1.0     0.128870      0.287230      0.379600     Biso  1.000000 H
   H96        1.0     0.871130      0.712770      0.620400     Biso  1.000000 H
   H97        1.0     0.195260      0.638540      0.067090     Biso  1.000000 H
   H98        1.0     0.804740      0.361460      0.932910     Biso  1.000000 H
   H99        1.0     0.804740      0.361460      0.067090     Biso  1.000000 H
   H100       1.0     0.195260      0.638540      0.932910     Biso  1.000000 H
   H101       1.0     0.304740      0.138540      0.932910     Biso  1.000000 H
   H102       1.0     0.695260      0.861460      0.067090     Biso  1.000000 H
   H103       1.0     0.695260      0.861460      0.932910     Biso  1.000000 H
   H104       1.0     0.304740      0.138540      0.067090     Biso  1.000000 H
   H105       1.0     0.695260      0.138540      0.567090     Biso  1.000000 H
   H106       1.0     0.304740      0.861460      0.432910     Biso  1.000000 H
   H107       1.0     0.304740      0.861460      0.567090     Biso  1.000000 H
   H108       1.0     0.695260      0.138540      0.432910     Biso  1.000000 H
   H109       1.0     0.804740      0.638540      0.432910     Biso  1.000000 H
   H110       1.0     0.195260      0.361460      0.567090     Biso  1.000000 H
   H111       1.0     0.195260      0.361460      0.432910     Biso  1.000000 H
   H112       1.0     0.804740      0.638540      0.567090     Biso  1.000000 H
   H113       1.0     0.418360      0.097130      0.085610     Biso  1.000000 H
   H114       1.0     0.581640      0.902870      0.914390     Biso  1.000000 H
   H115       1.0     0.581640      0.902870      0.085610     Biso  1.000000 H
   H116       1.0     0.418360      0.097130      0.914390     Biso  1.000000 H
   H117       1.0     0.081640      0.597130      0.914390     Biso  1.000000 H
   H118       1.0     0.918360      0.402870      0.085610     Biso  1.000000 H
   H119       1.0     0.918360      0.402870      0.914390     Biso  1.000000 H
   H120       1.0     0.081640      0.597130      0.085610     Biso  1.000000 H
   H121       1.0     0.918360      0.597130      0.585610     Biso  1.000000 H
   H122       1.0     0.081640      0.402870      0.414390     Biso  1.000000 H
   H123       1.0     0.081640      0.402870      0.585610     Biso  1.000000 H
   H124       1.0     0.918360      0.597130      0.414390     Biso  1.000000 H
   H125       1.0     0.581640      0.097130      0.414390     Biso  1.000000 H
   H126       1.0     0.418360      0.902870      0.585610     Biso  1.000000 H
   H127       1.0     0.418360      0.902870      0.414390     Biso  1.000000 H
   H128       1.0     0.581640      0.097130      0.585610     Biso  1.000000 H
   H129       1.0     0.391880      0.111890      0.050950     Biso  1.000000 H
   H130       1.0     0.608120      0.888110      0.949050     Biso  1.000000 H
   H131       1.0     0.608120      0.888110      0.050950     Biso  1.000000 H
   H132       1.0     0.391880      0.111890      0.949050     Biso  1.000000 H
   H133       1.0     0.108120      0.611890      0.949050     Biso  1.000000 H
   H134       1.0     0.891880      0.388110      0.050950     Biso  1.000000 H
   H135       1.0     0.891880      0.388110      0.949050     Biso  1.000000 H
   H136       1.0     0.108120      0.611890      0.050950     Biso  1.000000 H
   H137       1.0     0.891880      0.611890      0.550950     Biso  1.000000 H
   H138       1.0     0.108120      0.388110      0.449050     Biso  1.000000 H
   H139       1.0     0.108120      0.388110      0.550950     Biso  1.000000 H
   H140       1.0     0.891880      0.611890      0.449050     Biso  1.000000 H
   H141       1.0     0.608120      0.111890      0.449050     Biso  1.000000 H
   H142       1.0     0.391880      0.888110      0.550950     Biso  1.000000 H
   H143       1.0     0.391880      0.888110      0.449050     Biso  1.000000 H
   H144       1.0     0.608120      0.111890      0.550950     Biso  1.000000 H
   H145       1.0     0.328630      0.085820      0.034940     Biso  1.000000 H
   H146       1.0     0.671370      0.914180      0.965060     Biso  1.000000 H
   H147       1.0     0.671370      0.914180      0.034940     Biso  1.000000 H
   H148       1.0     0.328630      0.085820      0.965060     Biso  1.000000 H
   H149       1.0     0.171370      0.585820      0.965060     Biso  1.000000 H
   H150       1.0     0.828630      0.414180      0.034940     Biso  1.000000 H
   H151       1.0     0.828630      0.414180      0.965060     Biso  1.000000 H
   H152       1.0     0.171370      0.585820      0.034940     Biso  1.000000 H
   H153       1.0     0.828630      0.585820      0.534940     Biso  1.000000 H
   H154       1.0     0.171370      0.414180      0.465060     Biso  1.000000 H
   H155       1.0     0.171370      0.414180      0.534940     Biso  1.000000 H
   H156       1.0     0.828630      0.585820      0.465060     Biso  1.000000 H
   H157       1.0     0.671370      0.085820      0.465060     Biso  1.000000 H
   H158       1.0     0.328630      0.914180      0.534940     Biso  1.000000 H
   H159       1.0     0.328630      0.914180      0.465060     Biso  1.000000 H
   H160       1.0     0.671370      0.085820      0.534940     Biso  1.000000 H
   H161       1.0     0.181140      0.133110      0.033240     Biso  1.000000 H
   H162       1.0     0.818860      0.866890      0.966760     Biso  1.000000 H
   H163       1.0     0.818860      0.866890      0.033240     Biso  1.000000 H
   H164       1.0     0.181140      0.133110      0.966760     Biso  1.000000 H
   H165       1.0     0.318860      0.633110      0.966760     Biso  1.000000 H
   H166       1.0     0.681140      0.366890      0.033240     Biso  1.000000 H
   H167       1.0     0.681140      0.366890      0.966760     Biso  1.000000 H
   H168       1.0     0.318860      0.633110      0.033240     Biso  1.000000 H
   H169       1.0     0.681140      0.633110      0.533240     Biso  1.000000 H
   H170       1.0     0.318860      0.366890      0.466760     Biso  1.000000 H
   H171       1.0     0.318860      0.366890      0.533240     Biso  1.000000 H
   H172       1.0     0.681140      0.633110      0.466760     Biso  1.000000 H
   H173       1.0     0.818860      0.133110      0.466760     Biso  1.000000 H
   H174       1.0     0.181140      0.866890      0.533240     Biso  1.000000 H
   H175       1.0     0.181140      0.866890      0.466760     Biso  1.000000 H
   H176       1.0     0.818860      0.133110      0.533240     Biso  1.000000 H
   H177       1.0     0.224480      0.165980      0.053380     Biso  1.000000 H
   H178       1.0     0.775520      0.834020      0.946620     Biso  1.000000 H
   H179       1.0     0.775520      0.834020      0.053380     Biso  1.000000 H
   H180       1.0     0.224480      0.165980      0.946620     Biso  1.000000 H
   H181       1.0     0.275520      0.665980      0.946620     Biso  1.000000 H
   H182       1.0     0.724480      0.334020      0.053380     Biso  1.000000 H
   H183       1.0     0.724480      0.334020      0.946620     Biso  1.000000 H
   H184       1.0     0.275520      0.665980      0.053380     Biso  1.000000 H
   H185       1.0     0.724480      0.665980      0.553380     Biso  1.000000 H
   H186       1.0     0.275520      0.334020      0.446620     Biso  1.000000 H
   H187       1.0     0.275520      0.334020      0.553380     Biso  1.000000 H
   H188       1.0     0.724480      0.665980      0.446620     Biso  1.000000 H
   H189       1.0     0.775520      0.165980      0.446620     Biso  1.000000 H
   H190       1.0     0.224480      0.834020      0.553380     Biso  1.000000 H
   H191       1.0     0.224480      0.834020      0.446620     Biso  1.000000 H
   H192       1.0     0.775520      0.165980      0.553380     Biso  1.000000 H
   H193       1.0     0.185760      0.173870      0.087550     Biso  1.000000 H
   H194       1.0     0.814240      0.826130      0.912450     Biso  1.000000 H
   H195       1.0     0.814240      0.826130      0.087550     Biso  1.000000 H
   H196       1.0     0.185760      0.173870      0.912450     Biso  1.000000 H
   H197       1.0     0.314240      0.673870      0.912450     Biso  1.000000 H
   H198       1.0     0.685760      0.326130      0.087550     Biso  1.000000 H
   H199       1.0     0.685760      0.326130      0.912450     Biso  1.000000 H
   H200       1.0     0.314240      0.673870      0.087550     Biso  1.000000 H
   H201       1.0     0.685760      0.673870      0.587550     Biso  1.000000 H
   H202       1.0     0.314240      0.326130      0.412450     Biso  1.000000 H
   H203       1.0     0.314240      0.326130      0.587550     Biso  1.000000 H
   H204       1.0     0.685760      0.673870      0.412450     Biso  1.000000 H
   H205       1.0     0.814240      0.173870      0.412450     Biso  1.000000 H
   H206       1.0     0.185760      0.826130      0.587550     Biso  1.000000 H
   H207       1.0     0.185760      0.826130      0.412450     Biso  1.000000 H
   H208       1.0     0.814240      0.173870      0.587550     Biso  1.000000 H
   H209       1.0     0.004540      0.217740      0.174050     Biso  1.000000 H
   H210       1.0     0.995460      0.782260      0.825950     Biso  1.000000 H
   H211       1.0     0.995460      0.782260      0.174050     Biso  1.000000 H
   H212       1.0     0.004540      0.217740      0.825950     Biso  1.000000 H
   H213       1.0     0.495460      0.717740      0.825950     Biso  1.000000 H
   H214       1.0     0.504540      0.282260      0.174050     Biso  1.000000 H
   H215       1.0     0.504540      0.282260      0.825950     Biso  1.000000 H
   H216       1.0     0.495460      0.717740      0.174050     Biso  1.000000 H
   H217       1.0     0.504540      0.717740      0.674050     Biso  1.000000 H
   H218       1.0     0.495460      0.282260      0.325950     Biso  1.000000 H
   H219       1.0     0.495460      0.282260      0.674050     Biso  1.000000 H
   H220       1.0     0.504540      0.717740      0.325950     Biso  1.000000 H
   H221       1.0     0.995460      0.217740      0.325950     Biso  1.000000 H
   H222       1.0     0.004540      0.782260      0.674050     Biso  1.000000 H
   H223       1.0     0.004540      0.782260      0.325950     Biso  1.000000 H
   H224       1.0     0.995460      0.217740      0.674050     Biso  1.000000 H
   H225       1.0     0.037350      0.204830      0.144290     Biso  1.000000 H
   H226       1.0     0.962650      0.795170      0.855710     Biso  1.000000 H
   H227       1.0     0.962650      0.795170      0.144290     Biso  1.000000 H
   H228       1.0     0.037350      0.204830      0.855710     Biso  1.000000 H
   H229       1.0     0.462650      0.704830      0.855710     Biso  1.000000 H
   H230       1.0     0.537350      0.295170      0.144290     Biso  1.000000 H
   H231       1.0     0.537350      0.295170      0.855710     Biso  1.000000 H
   H232       1.0     0.462650      0.704830      0.144290     Biso  1.000000 H
   H233       1.0     0.537350      0.704830      0.644290     Biso  1.000000 H
   H234       1.0     0.462650      0.295170      0.355710     Biso  1.000000 H
   H235       1.0     0.462650      0.295170      0.644290     Biso  1.000000 H
   H236       1.0     0.537350      0.704830      0.355710     Biso  1.000000 H
   H237       1.0     0.962650      0.204830      0.355710     Biso  1.000000 H
   H238       1.0     0.037350      0.795170      0.644290     Biso  1.000000 H
   H239       1.0     0.037350      0.795170      0.355710     Biso  1.000000 H
   H240       1.0     0.962650      0.204830      0.644290     Biso  1.000000 H
   H241       1.0     0.069860      0.194710      0.249480     Biso  1.000000 H
   H242       1.0     0.930140      0.805290      0.750520     Biso  1.000000 H
   H243       1.0     0.930140      0.805290      0.249480     Biso  1.000000 H
   H244       1.0     0.069860      0.194710      0.750520     Biso  1.000000 H
   H245       1.0     0.430140      0.694710      0.750520     Biso  1.000000 H
   H246       1.0     0.569860      0.305290      0.249480     Biso  1.000000 H
   H247       1.0     0.569860      0.305290      0.750520     Biso  1.000000 H
   H248       1.0     0.430140      0.694710      0.249480     Biso  1.000000 H
   H249       1.0     0.569860      0.694710      0.749480     Biso  1.000000 H
   H250       1.0     0.430140      0.305290      0.250520     Biso  1.000000 H
   H251       1.0     0.430140      0.305290      0.749480     Biso  1.000000 H
   H252       1.0     0.569860      0.694710      0.250520     Biso  1.000000 H
   H253       1.0     0.930140      0.194710      0.250520     Biso  1.000000 H
   H254       1.0     0.069860      0.805290      0.749480     Biso  1.000000 H
   H255       1.0     0.069860      0.805290      0.250520     Biso  1.000000 H
   H256       1.0     0.930140      0.194710      0.749480     Biso  1.000000 H
   H257       1.0     0.037350      0.207910      0.279850     Biso  1.000000 H
   H258       1.0     0.962650      0.792090      0.720150     Biso  1.000000 H
   H259       1.0     0.962650      0.792090      0.279850     Biso  1.000000 H
   H260       1.0     0.037350      0.207910      0.720150     Biso  1.000000 H
   H261       1.0     0.462650      0.707910      0.720150     Biso  1.000000 H
   H262       1.0     0.537350      0.292090      0.279850     Biso  1.000000 H
   H263       1.0     0.537350      0.292090      0.720150     Biso  1.000000 H
   H264       1.0     0.462650      0.707910      0.279850     Biso  1.000000 H
   H265       1.0     0.537350      0.707910      0.779850     Biso  1.000000 H
   H266       1.0     0.462650      0.292090      0.220150     Biso  1.000000 H
   H267       1.0     0.462650      0.292090      0.779850     Biso  1.000000 H
   H268       1.0     0.537350      0.707910      0.220150     Biso  1.000000 H
   H269       1.0     0.962650      0.207910      0.220150     Biso  1.000000 H
   H270       1.0     0.037350      0.792090      0.779850     Biso  1.000000 H
   H271       1.0     0.037350      0.792090      0.220150     Biso  1.000000 H
   H272       1.0     0.962650      0.207910      0.779850     Biso  1.000000 H
   H273       1.0     0.987090      0.510770      0.183430     Biso  1.000000 H
   H274       1.0     0.012910      0.489230      0.816570     Biso  1.000000 H
   H275       1.0     0.012910      0.489230      0.183430     Biso  1.000000 H
   H276       1.0     0.987090      0.510770      0.816570     Biso  1.000000 H
   H277       1.0     0.512910      0.010770      0.816570     Biso  1.000000 H
   H278       1.0     0.487090      0.989230      0.183430     Biso  1.000000 H
   H279       1.0     0.487090      0.989230      0.816570     Biso  1.000000 H
   H280       1.0     0.512910      0.010770      0.183430     Biso  1.000000 H
   H281       1.0     0.487090      0.010770      0.683430     Biso  1.000000 H
   H282       1.0     0.512910      0.989230      0.316570     Biso  1.000000 H
   H283       1.0     0.512910      0.989230      0.683430     Biso  1.000000 H
   H284       1.0     0.487090      0.010770      0.316570     Biso  1.000000 H
   H285       1.0     0.012910      0.510770      0.316570     Biso  1.000000 H
   H286       1.0     0.987090      0.489230      0.683430     Biso  1.000000 H
   H287       1.0     0.987090      0.489230      0.316570     Biso  1.000000 H
   H288       1.0     0.012910      0.510770      0.683430     Biso  1.000000 H
   H289       1.0     0.012460      0.525540      0.148560     Biso  1.000000 H
   H290       1.0     0.987540      0.474460      0.851440     Biso  1.000000 H
   H291       1.0     0.987540      0.474460      0.148560     Biso  1.000000 H
   H292       1.0     0.012460      0.525540      0.851440     Biso  1.000000 H
   H293       1.0     0.487540      0.025540      0.851440     Biso  1.000000 H
   H294       1.0     0.512460      0.974460      0.148560     Biso  1.000000 H
   H295       1.0     0.512460      0.974460      0.851440     Biso  1.000000 H
   H296       1.0     0.487540      0.025540      0.148560     Biso  1.000000 H
   H297       1.0     0.512460      0.025540      0.648560     Biso  1.000000 H
   H298       1.0     0.487540      0.974460      0.351440     Biso  1.000000 H
   H299       1.0     0.487540      0.974460      0.648560     Biso  1.000000 H
   H300       1.0     0.512460      0.025540      0.351440     Biso  1.000000 H
   H301       1.0     0.987540      0.525540      0.351440     Biso  1.000000 H
   H302       1.0     0.012460      0.474460      0.648560     Biso  1.000000 H
   H303       1.0     0.012460      0.474460      0.351440     Biso  1.000000 H
   H304       1.0     0.987540      0.525540      0.648560     Biso  1.000000 H
   H305       1.0     0.074610      0.525740      0.231580     Biso  1.000000 H
   H306       1.0     0.925390      0.474260      0.768420     Biso  1.000000 H
   H307       1.0     0.925390      0.474260      0.231580     Biso  1.000000 H
   H308       1.0     0.074610      0.525740      0.768420     Biso  1.000000 H
   H309       1.0     0.425390      0.025740      0.768420     Biso  1.000000 H
   H310       1.0     0.574610      0.974260      0.231580     Biso  1.000000 H
   H311       1.0     0.574610      0.974260      0.768420     Biso  1.000000 H
   H312       1.0     0.425390      0.025740      0.231580     Biso  1.000000 H
   H313       1.0     0.574610      0.025740      0.731580     Biso  1.000000 H
   H314       1.0     0.425390      0.974260      0.268420     Biso  1.000000 H
   H315       1.0     0.425390      0.974260      0.731580     Biso  1.000000 H
   H316       1.0     0.574610      0.025740      0.268420     Biso  1.000000 H
   H317       1.0     0.925390      0.525740      0.268420     Biso  1.000000 H
   H318       1.0     0.074610      0.474260      0.731580     Biso  1.000000 H
   H319       1.0     0.074610      0.474260      0.268420     Biso  1.000000 H
   H320       1.0     0.925390      0.525740      0.731580     Biso  1.000000 H
   H321       1.0     0.049620      0.510760      0.266390     Biso  1.000000 H
   H322       1.0     0.950380      0.489240      0.733610     Biso  1.000000 H
   H323       1.0     0.950380      0.489240      0.266390     Biso  1.000000 H
   H324       1.0     0.049620      0.510760      0.733610     Biso  1.000000 H
   H325       1.0     0.450380      0.010760      0.733610     Biso  1.000000 H
   H326       1.0     0.549620      0.989240      0.266390     Biso  1.000000 H
   H327       1.0     0.549620      0.989240      0.733610     Biso  1.000000 H
   H328       1.0     0.450380      0.010760      0.266390     Biso  1.000000 H
   H329       1.0     0.549620      0.010760      0.766390     Biso  1.000000 H
   H330       1.0     0.450380      0.989240      0.233610     Biso  1.000000 H
   H331       1.0     0.450380      0.989240      0.766390     Biso  1.000000 H
   H332       1.0     0.549620      0.010760      0.233610     Biso  1.000000 H
   H333       1.0     0.950380      0.510760      0.233610     Biso  1.000000 H
   H334       1.0     0.049620      0.489240      0.766390     Biso  1.000000 H
   H335       1.0     0.049620      0.489240      0.233610     Biso  1.000000 H
   H336       1.0     0.950380      0.510760      0.766390     Biso  1.000000 H
   H337       1.0     0.123540      0.543570      0.135700     Biso  1.000000 H
   H338       1.0     0.876460      0.456430      0.864300     Biso  1.000000 H
   H339       1.0     0.876460      0.456430      0.135700     Biso  1.000000 H
   H340       1.0     0.123540      0.543570      0.864300     Biso  1.000000 H
   H341       1.0     0.376460      0.043570      0.864300     Biso  1.000000 H
   H342       1.0     0.623540      0.956430      0.135700     Biso  1.000000 H
   H343       1.0     0.623540      0.956430      0.864300     Biso  1.000000 H
   H344       1.0     0.376460      0.043570      0.135700     Biso  1.000000 H
   H345       1.0     0.623540      0.043570      0.635700     Biso  1.000000 H
   H346       1.0     0.376460      0.956430      0.364300     Biso  1.000000 H
   H347       1.0     0.376460      0.956430      0.635700     Biso  1.000000 H
   H348       1.0     0.623540      0.043570      0.364300     Biso  1.000000 H
   H349       1.0     0.876460      0.543570      0.364300     Biso  1.000000 H
   H350       1.0     0.123540      0.456430      0.635700     Biso  1.000000 H
   H351       1.0     0.123540      0.456430      0.364300     Biso  1.000000 H
   H352       1.0     0.876460      0.543570      0.635700     Biso  1.000000 H
   H353       1.0     0.047800      0.562470      0.123210     Biso  1.000000 H
   H354       1.0     0.952200      0.437530      0.876790     Biso  1.000000 H
   H355       1.0     0.952200      0.437530      0.123210     Biso  1.000000 H
   H356       1.0     0.047800      0.562470      0.876790     Biso  1.000000 H
   H357       1.0     0.452200      0.062470      0.876790     Biso  1.000000 H
   H358       1.0     0.547800      0.937530      0.123210     Biso  1.000000 H
   H359       1.0     0.547800      0.937530      0.876790     Biso  1.000000 H
   H360       1.0     0.452200      0.062470      0.123210     Biso  1.000000 H
   H361       1.0     0.547800      0.062470      0.623210     Biso  1.000000 H
   H362       1.0     0.452200      0.937530      0.376790     Biso  1.000000 H
   H363       1.0     0.452200      0.937530      0.623210     Biso  1.000000 H
   H364       1.0     0.547800      0.062470      0.376790     Biso  1.000000 H
   H365       1.0     0.952200      0.562470      0.376790     Biso  1.000000 H
   H366       1.0     0.047800      0.437530      0.623210     Biso  1.000000 H
   H367       1.0     0.047800      0.437530      0.376790     Biso  1.000000 H
   H368       1.0     0.952200      0.562470      0.623210     Biso  1.000000 H
   H369       1.0     0.024660      0.546870      0.157470     Biso  1.000000 H
   H370       1.0     0.975340      0.453130      0.842530     Biso  1.000000 H
   H371       1.0     0.975340      0.453130      0.157470     Biso  1.000000 H
   H372       1.0     0.024660      0.546870      0.842530     Biso  1.000000 H
   H373       1.0     0.475340      0.046870      0.842530     Biso  1.000000 H
   H374       1.0     0.524660      0.953130      0.157470     Biso  1.000000 H
   H375       1.0     0.524660      0.953130      0.842530     Biso  1.000000 H
   H376       1.0     0.475340      0.046870      0.157470     Biso  1.000000 H
   H377       1.0     0.524660      0.046870      0.657470     Biso  1.000000 H
   H378       1.0     0.475340      0.953130      0.342530     Biso  1.000000 H
   H379       1.0     0.475340      0.953130      0.657470     Biso  1.000000 H
   H380       1.0     0.524660      0.046870      0.342530     Biso  1.000000 H
   H381       1.0     0.975340      0.546870      0.342530     Biso  1.000000 H
   H382       1.0     0.024660      0.453130      0.657470     Biso  1.000000 H
   H383       1.0     0.024660      0.453130      0.342530     Biso  1.000000 H
   H384       1.0     0.975340      0.546870      0.657470     Biso  1.000000 H
   H385       1.0     0.815410      0.315290      0.054970     Biso  1.000000 H
   H386       1.0     0.184590      0.684710      0.945030     Biso  1.000000 H
   H387       1.0     0.184590      0.684710      0.054970     Biso  1.000000 H
   H388       1.0     0.815410      0.315290      0.945030     Biso  1.000000 H
   H389       1.0     0.684590      0.815290      0.945030     Biso  1.000000 H
   H390       1.0     0.315410      0.184710      0.054970     Biso  1.000000 H
   H391       1.0     0.315410      0.184710      0.945030     Biso  1.000000 H
   H392       1.0     0.684590      0.815290      0.054970     Biso  1.000000 H
   H393       1.0     0.315410      0.815290      0.554970     Biso  1.000000 H
   H394       1.0     0.684590      0.184710      0.445030     Biso  1.000000 H
   H395       1.0     0.684590      0.184710      0.554970     Biso  1.000000 H
   H396       1.0     0.315410      0.815290      0.445030     Biso  1.000000 H
   H397       1.0     0.184590      0.315290      0.445030     Biso  1.000000 H
   H398       1.0     0.815410      0.684710      0.554970     Biso  1.000000 H
   H399       1.0     0.815410      0.684710      0.445030     Biso  1.000000 H
   H400       1.0     0.184590      0.315290      0.554970     Biso  1.000000 H
   H401       1.0     0.897300      0.326420      0.032570     Biso  1.000000 H
   H402       1.0     0.102700      0.673580      0.967430     Biso  1.000000 H
   H403       1.0     0.102700      0.673580      0.032570     Biso  1.000000 H
   H404       1.0     0.897300      0.326420      0.967430     Biso  1.000000 H
   H405       1.0     0.602700      0.826420      0.967430     Biso  1.000000 H
   H406       1.0     0.397300      0.173580      0.032570     Biso  1.000000 H
   H407       1.0     0.397300      0.173580      0.967430     Biso  1.000000 H
   H408       1.0     0.602700      0.826420      0.032570     Biso  1.000000 H
   H409       1.0     0.397300      0.826420      0.532570     Biso  1.000000 H
   H410       1.0     0.602700      0.173580      0.467430     Biso  1.000000 H
   H411       1.0     0.602700      0.173580      0.532570     Biso  1.000000 H
   H412       1.0     0.397300      0.826420      0.467430     Biso  1.000000 H
   H413       1.0     0.102700      0.326420      0.467430     Biso  1.000000 H
   H414       1.0     0.897300      0.673580      0.532570     Biso  1.000000 H
   H415       1.0     0.897300      0.673580      0.467430     Biso  1.000000 H
   H416       1.0     0.102700      0.326420      0.532570     Biso  1.000000 H
   H417       1.0     0.914600      0.309070      0.066560     Biso  1.000000 H
   H418       1.0     0.085400      0.690930      0.933440     Biso  1.000000 H
   H419       1.0     0.085400      0.690930      0.066560     Biso  1.000000 H
   H420       1.0     0.914600      0.309070      0.933440     Biso  1.000000 H
   H421       1.0     0.585400      0.809070      0.933440     Biso  1.000000 H
   H422       1.0     0.414600      0.190930      0.066560     Biso  1.000000 H
   H423       1.0     0.414600      0.190930      0.933440     Biso  1.000000 H
   H424       1.0     0.585400      0.809070      0.066560     Biso  1.000000 H
   H425       1.0     0.414600      0.809070      0.566560     Biso  1.000000 H
   H426       1.0     0.585400      0.190930      0.433440     Biso  1.000000 H
   H427       1.0     0.585400      0.190930      0.566560     Biso  1.000000 H
   H428       1.0     0.414600      0.809070      0.433440     Biso  1.000000 H
   H429       1.0     0.085400      0.309070      0.433440     Biso  1.000000 H
   H430       1.0     0.914600      0.690930      0.566560     Biso  1.000000 H
   H431       1.0     0.914600      0.690930      0.433440     Biso  1.000000 H
   H432       1.0     0.085400      0.309070      0.566560     Biso  1.000000 H
   H433       1.0     0.022210      0.238940      0.200080     Biso  1.000000 H
   H434       1.0     0.977790      0.761060      0.799920     Biso  1.000000 H
   H435       1.0     0.977790      0.761060      0.200080     Biso  1.000000 H
   H436       1.0     0.022210      0.238940      0.799920     Biso  1.000000 H
   H437       1.0     0.477790      0.738940      0.799920     Biso  1.000000 H
   H438       1.0     0.522210      0.261060      0.200080     Biso  1.000000 H
   H439       1.0     0.522210      0.261060      0.799920     Biso  1.000000 H
   H440       1.0     0.477790      0.738940      0.200080     Biso  1.000000 H
   H441       1.0     0.522210      0.738940      0.700080     Biso  1.000000 H
   H442       1.0     0.477790      0.261060      0.299920     Biso  1.000000 H
   H443       1.0     0.477790      0.261060      0.700080     Biso  1.000000 H
   H444       1.0     0.522210      0.738940      0.299920     Biso  1.000000 H
   H445       1.0     0.977790      0.238940      0.299920     Biso  1.000000 H
   H446       1.0     0.022210      0.761060      0.700080     Biso  1.000000 H
   H447       1.0     0.022210      0.761060      0.299920     Biso  1.000000 H
   H448       1.0     0.977790      0.238940      0.700080     Biso  1.000000 H
   H449       1.0     0.000580      0.254300      0.162860     Biso  1.000000 H
   H450       1.0     0.999420      0.745700      0.837140     Biso  1.000000 H
   H451       1.0     0.999420      0.745700      0.162860     Biso  1.000000 H
   H452       1.0     0.000580      0.254300      0.837140     Biso  1.000000 H
   H453       1.0     0.499420      0.754300      0.837140     Biso  1.000000 H
   H454       1.0     0.500580      0.245700      0.162860     Biso  1.000000 H
   H455       1.0     0.500580      0.245700      0.837140     Biso  1.000000 H
   H456       1.0     0.499420      0.754300      0.162860     Biso  1.000000 H
   H457       1.0     0.500580      0.754300      0.662860     Biso  1.000000 H
   H458       1.0     0.499420      0.245700      0.337140     Biso  1.000000 H
   H459       1.0     0.499420      0.245700      0.662860     Biso  1.000000 H
   H460       1.0     0.500580      0.754300      0.337140     Biso  1.000000 H
   H461       1.0     0.999420      0.254300      0.337140     Biso  1.000000 H
   H462       1.0     0.000580      0.745700      0.662860     Biso  1.000000 H
   H463       1.0     0.000580      0.745700      0.337140     Biso  1.000000 H
   H464       1.0     0.999420      0.254300      0.662860     Biso  1.000000 H
   H465       1.0     0.922480      0.243570      0.204450     Biso  1.000000 H
   H466       1.0     0.077520      0.756430      0.795550     Biso  1.000000 H
   H467       1.0     0.077520      0.756430      0.204450     Biso  1.000000 H
   H468       1.0     0.922480      0.243570      0.795550     Biso  1.000000 H
   H469       1.0     0.577520      0.743570      0.795550     Biso  1.000000 H
   H470       1.0     0.422480      0.256430      0.204450     Biso  1.000000 H
   H471       1.0     0.422480      0.256430      0.795550     Biso  1.000000 H
   H472       1.0     0.577520      0.743570      0.204450     Biso  1.000000 H
   H473       1.0     0.422480      0.743570      0.704450     Biso  1.000000 H
   H474       1.0     0.577520      0.256430      0.295550     Biso  1.000000 H
   H475       1.0     0.577520      0.256430      0.704450     Biso  1.000000 H
   H476       1.0     0.422480      0.743570      0.295550     Biso  1.000000 H
   H477       1.0     0.077520      0.243570      0.295550     Biso  1.000000 H
   H478       1.0     0.922480      0.756430      0.704450     Biso  1.000000 H
   H479       1.0     0.922480      0.756430      0.295550     Biso  1.000000 H
   H480       1.0     0.077520      0.243570      0.704450     Biso  1.000000 H
   H481       1.0     0.943830      0.228990      0.243670     Biso  1.000000 H
   H482       1.0     0.056170      0.771010      0.756330     Biso  1.000000 H
   H483       1.0     0.056170      0.771010      0.243670     Biso  1.000000 H
   H484       1.0     0.943830      0.228990      0.756330     Biso  1.000000 H
   H485       1.0     0.556170      0.728990      0.756330     Biso  1.000000 H
   H486       1.0     0.443830      0.271010      0.243670     Biso  1.000000 H
   H487       1.0     0.443830      0.271010      0.756330     Biso  1.000000 H
   H488       1.0     0.556170      0.728990      0.243670     Biso  1.000000 H
   H489       1.0     0.443830      0.728990      0.743670     Biso  1.000000 H
   H490       1.0     0.556170      0.271010      0.256330     Biso  1.000000 H
   H491       1.0     0.556170      0.271010      0.743670     Biso  1.000000 H
   H492       1.0     0.443830      0.728990      0.256330     Biso  1.000000 H
   H493       1.0     0.056170      0.228990      0.256330     Biso  1.000000 H
   H494       1.0     0.943830      0.771010      0.743670     Biso  1.000000 H
   H495       1.0     0.943830      0.771010      0.256330     Biso  1.000000 H
   H496       1.0     0.056170      0.228990      0.743670     Biso  1.000000 H
   H497       1.0     0.919920      0.265110      0.202810     Biso  1.000000 H
   H498       1.0     0.080080      0.734890      0.797190     Biso  1.000000 H
   H499       1.0     0.080080      0.734890      0.202810     Biso  1.000000 H
   H500       1.0     0.919920      0.265110      0.797190     Biso  1.000000 H
   H501       1.0     0.580080      0.765110      0.797190     Biso  1.000000 H
   H502       1.0     0.419920      0.234890      0.202810     Biso  1.000000 H
   H503       1.0     0.419920      0.234890      0.797190     Biso  1.000000 H
   H504       1.0     0.580080      0.765110      0.202810     Biso  1.000000 H
   H505       1.0     0.419920      0.765110      0.702810     Biso  1.000000 H
   H506       1.0     0.580080      0.234890      0.297190     Biso  1.000000 H
   H507       1.0     0.580080      0.234890      0.702810     Biso  1.000000 H
   H508       1.0     0.419920      0.765110      0.297190     Biso  1.000000 H
   H509       1.0     0.080080      0.265110      0.297190     Biso  1.000000 H
   H510       1.0     0.919920      0.734890      0.702810     Biso  1.000000 H
   H511       1.0     0.919920      0.734890      0.297190     Biso  1.000000 H
   H512       1.0     0.080080      0.265110      0.702810     Biso  1.000000 H
   H513       1.0     0.898310      0.281280      0.168730     Biso  1.000000 H
   H514       1.0     0.101690      0.718720      0.831270     Biso  1.000000 H
   H515       1.0     0.101690      0.718720      0.168730     Biso  1.000000 H
   H516       1.0     0.898310      0.281280      0.831270     Biso  1.000000 H
   H517       1.0     0.601690      0.781280      0.831270     Biso  1.000000 H
   H518       1.0     0.398310      0.218720      0.168730     Biso  1.000000 H
   H519       1.0     0.398310      0.218720      0.831270     Biso  1.000000 H
   H520       1.0     0.601690      0.781280      0.168730     Biso  1.000000 H
   H521       1.0     0.398310      0.781280      0.668730     Biso  1.000000 H
   H522       1.0     0.601690      0.218720      0.331270     Biso  1.000000 H
   H523       1.0     0.601690      0.218720      0.668730     Biso  1.000000 H
   H524       1.0     0.398310      0.781280      0.331270     Biso  1.000000 H
   H525       1.0     0.101690      0.281280      0.331270     Biso  1.000000 H
   H526       1.0     0.898310      0.718720      0.668730     Biso  1.000000 H
   H527       1.0     0.898310      0.718720      0.331270     Biso  1.000000 H
   H528       1.0     0.101690      0.281280      0.668730     Biso  1.000000 H
   H529       1.0     0.948470      0.273530      0.075020     Biso  1.000000 H
   H530       1.0     0.051530      0.726470      0.924980     Biso  1.000000 H
   H531       1.0     0.051530      0.726470      0.075020     Biso  1.000000 H
   H532       1.0     0.948470      0.273530      0.924980     Biso  1.000000 H
   H533       1.0     0.551530      0.773530      0.924980     Biso  1.000000 H
   H534       1.0     0.448470      0.226470      0.075020     Biso  1.000000 H
   H535       1.0     0.448470      0.226470      0.924980     Biso  1.000000 H
   H536       1.0     0.551530      0.773530      0.075020     Biso  1.000000 H
   H537       1.0     0.448470      0.773530      0.575020     Biso  1.000000 H
   H538       1.0     0.551530      0.226470      0.424980     Biso  1.000000 H
   H539       1.0     0.551530      0.226470      0.575020     Biso  1.000000 H
   H540       1.0     0.448470      0.773530      0.424980     Biso  1.000000 H
   H541       1.0     0.051530      0.273530      0.424980     Biso  1.000000 H
   H542       1.0     0.948470      0.726470      0.575020     Biso  1.000000 H
   H543       1.0     0.948470      0.726470      0.424980     Biso  1.000000 H
   H544       1.0     0.051530      0.273530      0.575020     Biso  1.000000 H
   H545       1.0     0.450750      0.682350      0.141040     Biso  1.000000 H
   H546       1.0     0.549250      0.317650      0.858960     Biso  1.000000 H
   H547       1.0     0.549250      0.317650      0.141040     Biso  1.000000 H
   H548       1.0     0.450750      0.682350      0.858960     Biso  1.000000 H
   H549       1.0     0.049250      0.182350      0.858960     Biso  1.000000 H
   H550       1.0     0.950750      0.817650      0.141040     Biso  1.000000 H
   H551       1.0     0.950750      0.817650      0.858960     Biso  1.000000 H
   H552       1.0     0.049250      0.182350      0.141040     Biso  1.000000 H
   H553       1.0     0.950750      0.182350      0.641040     Biso  1.000000 H
   H554       1.0     0.049250      0.817650      0.358960     Biso  1.000000 H
   H555       1.0     0.049250      0.817650      0.641040     Biso  1.000000 H
   H556       1.0     0.950750      0.182350      0.358960     Biso  1.000000 H
   H557       1.0     0.549250      0.682350      0.358960     Biso  1.000000 H
   H558       1.0     0.450750      0.317650      0.641040     Biso  1.000000 H
   H559       1.0     0.450750      0.317650      0.358960     Biso  1.000000 H
   H560       1.0     0.549250      0.682350      0.641040     Biso  1.000000 H
   H561       1.0     0.416040      0.671080      0.107960     Biso  1.000000 H
   H562       1.0     0.583960      0.328920      0.892040     Biso  1.000000 H
   H563       1.0     0.583960      0.328920      0.107960     Biso  1.000000 H
   H564       1.0     0.416040      0.671080      0.892040     Biso  1.000000 H
   H565       1.0     0.083960      0.171080      0.892040     Biso  1.000000 H
   H566       1.0     0.916040      0.828920      0.107960     Biso  1.000000 H
   H567       1.0     0.916040      0.828920      0.892040     Biso  1.000000 H
   H568       1.0     0.083960      0.171080      0.107960     Biso  1.000000 H
   H569       1.0     0.916040      0.171080      0.607960     Biso  1.000000 H
   H570       1.0     0.083960      0.828920      0.392040     Biso  1.000000 H
   H571       1.0     0.083960      0.828920      0.607960     Biso  1.000000 H
   H572       1.0     0.916040      0.171080      0.392040     Biso  1.000000 H
   H573       1.0     0.583960      0.671080      0.392040     Biso  1.000000 H
   H574       1.0     0.416040      0.328920      0.607960     Biso  1.000000 H
   H575       1.0     0.416040      0.328920      0.392040     Biso  1.000000 H
   H576       1.0     0.583960      0.671080      0.607960     Biso  1.000000 H
   H577       1.0     0.353870      0.688240      0.172330     Biso  1.000000 H
   H578       1.0     0.646130      0.311760      0.827670     Biso  1.000000 H
   H579       1.0     0.646130      0.311760      0.172330     Biso  1.000000 H
   H580       1.0     0.353870      0.688240      0.827670     Biso  1.000000 H
   H581       1.0     0.146130      0.188240      0.827670     Biso  1.000000 H
   H582       1.0     0.853870      0.811760      0.172330     Biso  1.000000 H
   H583       1.0     0.853870      0.811760      0.827670     Biso  1.000000 H
   H584       1.0     0.146130      0.188240      0.172330     Biso  1.000000 H
   H585       1.0     0.853870      0.188240      0.672330     Biso  1.000000 H
   H586       1.0     0.146130      0.811760      0.327670     Biso  1.000000 H
   H587       1.0     0.146130      0.811760      0.672330     Biso  1.000000 H
   H588       1.0     0.853870      0.188240      0.327670     Biso  1.000000 H
   H589       1.0     0.646130      0.688240      0.327670     Biso  1.000000 H
   H590       1.0     0.353870      0.311760      0.672330     Biso  1.000000 H
   H591       1.0     0.353870      0.311760      0.327670     Biso  1.000000 H
   H592       1.0     0.646130      0.688240      0.672330     Biso  1.000000 H
   H593       1.0     0.500000      0.723340      0.250000     Biso  1.000000 H
   H594       1.0     0.500000      0.276660      0.750000     Biso  1.000000 H
   H595       1.0     0.500000      0.276660      0.250000     Biso  1.000000 H
   H596       1.0     0.500000      0.723340      0.750000     Biso  1.000000 H
   H597       1.0     0.000000      0.223340      0.750000     Biso  1.000000 H
   H598       1.0     0.000000      0.776660      0.250000     Biso  1.000000 H
   H599       1.0     0.000000      0.776660      0.750000     Biso  1.000000 H
   H600       1.0     0.000000      0.223340      0.250000     Biso  1.000000 H
   H601       1.0     0.000000      0.500000      0.250000     Biso  1.000000 H
   H602       1.0     0.000000      0.500000      0.750000     Biso  1.000000 H
   H603       1.0     0.500000      0.000000      0.750000     Biso  1.000000 H
   H604       1.0     0.500000      0.000000      0.250000     Biso  1.000000 H
