#======================================================================

# CRYSTAL DATA

#----------------------------------------------------------------------

data_VESTA_phase_1


_chemical_name_common                  ''
_cell_length_a                         48.81790
_cell_length_b                         110.72940
_cell_length_c                         37.21920
_cell_angle_alpha                      90
_cell_angle_beta                       90
_cell_angle_gamma                      90
_space_group_name_H-M_alt              'P 1'
_space_group_IT_number                 1

loop_
_space_group_symop_operation_xyz
   'x, y, z'

loop_
   _atom_site_label
   _atom_site_occupancy
   _atom_site_fract_x
   _atom_site_fract_y
   _atom_site_fract_z
   _atom_site_adp_type
   _atom_site_B_iso_or_equiv
   _atom_site_type_symbol
   C1         1.0     0.232290      0.637190      0.019050     Biso  1.000000 C
   C2         1.0     0.767710      0.362810      0.980950     Biso  1.000000 C
   C3         1.0     0.767710      0.362810      0.019050     Biso  1.000000 C
   C4         1.0     0.232290      0.637190      0.980950     Biso  1.000000 C
   C5         1.0     0.267710      0.137190      0.980950     Biso  1.000000 C
   C6         1.0     0.732290      0.862810      0.019050     Biso  1.000000 C
   C7         1.0     0.732290      0.862810      0.980950     Biso  1.000000 C
   C8         1.0     0.267710      0.137190      0.019050     Biso  1.000000 C
   C9         1.0     0.732290      0.137190      0.519050     Biso  1.000000 C
   C10        1.0     0.267710      0.862810      0.480950     Biso  1.000000 C
   C11        1.0     0.267710      0.862810      0.519050     Biso  1.000000 C
   C12        1.0     0.732290      0.137190      0.480950     Biso  1.000000 C
   C13        1.0     0.767710      0.637190      0.480950     Biso  1.000000 C
   C14        1.0     0.232290      0.362810      0.519050     Biso  1.000000 C
   C15        1.0     0.232290      0.362810      0.480950     Biso  1.000000 C
   C16        1.0     0.767710      0.637190      0.519050     Biso  1.000000 C
   C17        1.0     0.280100      0.642990      0.019090     Biso  1.000000 C
   C18        1.0     0.719900      0.357010      0.980910     Biso  1.000000 C
   C19        1.0     0.719900      0.357010      0.019090     Biso  1.000000 C
   C20        1.0     0.280100      0.642990      0.980910     Biso  1.000000 C
   C21        1.0     0.219900      0.142990      0.980910     Biso  1.000000 C
   C22        1.0     0.780100      0.857010      0.019090     Biso  1.000000 C
   C23        1.0     0.780100      0.857010      0.980910     Biso  1.000000 C
   C24        1.0     0.219900      0.142990      0.019090     Biso  1.000000 C
   C25        1.0     0.780100      0.142990      0.519090     Biso  1.000000 C
   C26        1.0     0.219900      0.857010      0.480910     Biso  1.000000 C
   C27        1.0     0.219900      0.857010      0.519090     Biso  1.000000 C
   C28        1.0     0.780100      0.142990      0.480910     Biso  1.000000 C
   C29        1.0     0.719900      0.642990      0.480910     Biso  1.000000 C
   C30        1.0     0.280100      0.357010      0.519090     Biso  1.000000 C
   C31        1.0     0.280100      0.357010      0.480910     Biso  1.000000 C
   C32        1.0     0.719900      0.642990      0.519090     Biso  1.000000 C
   C33        1.0     0.256130      0.639920      0.037970     Biso  1.000000 C
   C34        1.0     0.743870      0.360080      0.962030     Biso  1.000000 C
   C35        1.0     0.743870      0.360080      0.037970     Biso  1.000000 C
   C36        1.0     0.256130      0.639920      0.962030     Biso  1.000000 C
   C37        1.0     0.243870      0.139920      0.962030     Biso  1.000000 C
   C38        1.0     0.756130      0.860080      0.037970     Biso  1.000000 C
   C39        1.0     0.756130      0.860080      0.962030     Biso  1.000000 C
   C40        1.0     0.243870      0.139920      0.037970     Biso  1.000000 C
   C41        1.0     0.756130      0.139920      0.537970     Biso  1.000000 C
   C42        1.0     0.243870      0.860080      0.462030     Biso  1.000000 C
   C43        1.0     0.243870      0.860080      0.537970     Biso  1.000000 C
   C44        1.0     0.756130      0.139920      0.462030     Biso  1.000000 C
   C45        1.0     0.743870      0.639920      0.462030     Biso  1.000000 C
   C46        1.0     0.256130      0.360080      0.537970     Biso  1.000000 C
   C47        1.0     0.256130      0.360080      0.462030     Biso  1.000000 C
   C48        1.0     0.743870      0.639920      0.537970     Biso  1.000000 C
   C49        1.0     0.303240      0.648130      0.039510     Biso  1.000000 C
   C50        1.0     0.696760      0.351870      0.960490     Biso  1.000000 C
   C51        1.0     0.696760      0.351870      0.039510     Biso  1.000000 C
   C52        1.0     0.303240      0.648130      0.960490     Biso  1.000000 C
   C53        1.0     0.196760      0.148130      0.960490     Biso  1.000000 C
   C54        1.0     0.803240      0.851870      0.039510     Biso  1.000000 C
   C55        1.0     0.803240      0.851870      0.960490     Biso  1.000000 C
   C56        1.0     0.196760      0.148130      0.039510     Biso  1.000000 C
   C57        1.0     0.803240      0.148130      0.539510     Biso  1.000000 C
   C58        1.0     0.196760      0.851870      0.460490     Biso  1.000000 C
   C59        1.0     0.196760      0.851870      0.539510     Biso  1.000000 C
   C60        1.0     0.803240      0.148130      0.460490     Biso  1.000000 C
   C61        1.0     0.696760      0.648130      0.460490     Biso  1.000000 C
   C62        1.0     0.303240      0.351870      0.539510     Biso  1.000000 C
   C63        1.0     0.303240      0.351870      0.460490     Biso  1.000000 C
   C64        1.0     0.696760      0.648130      0.539510     Biso  1.000000 C
   C65        1.0     0.347170      0.658450      0.077690     Biso  1.000000 C
   C66        1.0     0.652830      0.341550      0.922310     Biso  1.000000 C
   C67        1.0     0.652830      0.341550      0.077690     Biso  1.000000 C
   C68        1.0     0.347170      0.658450      0.922310     Biso  1.000000 C
   C69        1.0     0.152830      0.158450      0.922310     Biso  1.000000 C
   C70        1.0     0.847170      0.841550      0.077690     Biso  1.000000 C
   C71        1.0     0.847170      0.841550      0.922310     Biso  1.000000 C
   C72        1.0     0.152830      0.158450      0.077690     Biso  1.000000 C
   C73        1.0     0.847170      0.158450      0.577690     Biso  1.000000 C
   C74        1.0     0.152830      0.841550      0.422310     Biso  1.000000 C
   C75        1.0     0.152830      0.841550      0.577690     Biso  1.000000 C
   C76        1.0     0.847170      0.158450      0.422310     Biso  1.000000 C
   C77        1.0     0.652830      0.658450      0.422310     Biso  1.000000 C
   C78        1.0     0.347170      0.341550      0.577690     Biso  1.000000 C
   C79        1.0     0.347170      0.341550      0.422310     Biso  1.000000 C
   C80        1.0     0.652830      0.658450      0.577690     Biso  1.000000 C
   C81        1.0     0.370340      0.663810      0.097680     Biso  1.000000 C
   C82        1.0     0.629660      0.336190      0.902320     Biso  1.000000 C
   C83        1.0     0.629660      0.336190      0.097680     Biso  1.000000 C
   C84        1.0     0.370340      0.663810      0.902320     Biso  1.000000 C
   C85        1.0     0.129660      0.163810      0.902320     Biso  1.000000 C
   C86        1.0     0.870340      0.836190      0.097680     Biso  1.000000 C
   C87        1.0     0.870340      0.836190      0.902320     Biso  1.000000 C
   C88        1.0     0.129660      0.163810      0.097680     Biso  1.000000 C
   C89        1.0     0.870340      0.163810      0.597680     Biso  1.000000 C
   C90        1.0     0.129660      0.836190      0.402320     Biso  1.000000 C
   C91        1.0     0.129660      0.836190      0.597680     Biso  1.000000 C
   C92        1.0     0.870340      0.163810      0.402320     Biso  1.000000 C
   C93        1.0     0.629660      0.663810      0.402320     Biso  1.000000 C
   C94        1.0     0.370340      0.336190      0.597680     Biso  1.000000 C
   C95        1.0     0.370340      0.336190      0.402320     Biso  1.000000 C
   C96        1.0     0.629660      0.663810      0.597680     Biso  1.000000 C
   C97        1.0     0.480250      0.718730      0.230020     Biso  1.000000 C
   C98        1.0     0.519750      0.281270      0.769980     Biso  1.000000 C
   C99        1.0     0.519750      0.281270      0.230020     Biso  1.000000 C
   C100       1.0     0.480250      0.718730      0.769980     Biso  1.000000 C
   C101       1.0     0.019750      0.218730      0.769980     Biso  1.000000 C
   C102       1.0     0.980250      0.781270      0.230020     Biso  1.000000 C
   C103       1.0     0.980250      0.781270      0.769980     Biso  1.000000 C
   C104       1.0     0.019750      0.218730      0.230020     Biso  1.000000 C
   C105       1.0     0.980250      0.218730      0.730020     Biso  1.000000 C
   C106       1.0     0.019750      0.781270      0.269980     Biso  1.000000 C
   C107       1.0     0.019750      0.781270      0.730020     Biso  1.000000 C
   C108       1.0     0.980250      0.218730      0.269980     Biso  1.000000 C
   C109       1.0     0.519750      0.718730      0.269980     Biso  1.000000 C
   C110       1.0     0.480250      0.281270      0.730020     Biso  1.000000 C
   C111       1.0     0.480250      0.281270      0.269980     Biso  1.000000 C
   C112       1.0     0.519750      0.718730      0.730020     Biso  1.000000 C
   C113       1.0     0.017410      0.508710      0.226920     Biso  1.000000 C
   C114       1.0     0.982590      0.491290      0.773080     Biso  1.000000 C
   C115       1.0     0.982590      0.491290      0.226920     Biso  1.000000 C
   C116       1.0     0.017410      0.508710      0.773080     Biso  1.000000 C
   C117       1.0     0.482590      0.008710      0.773080     Biso  1.000000 C
   C118       1.0     0.517410      0.991290      0.226920     Biso  1.000000 C
   C119       1.0     0.517410      0.991290      0.773080     Biso  1.000000 C
   C120       1.0     0.482590      0.008710      0.226920     Biso  1.000000 C
   C121       1.0     0.517410      0.008710      0.726920     Biso  1.000000 C
   C122       1.0     0.482590      0.991290      0.273080     Biso  1.000000 C
   C123       1.0     0.482590      0.991290      0.726920     Biso  1.000000 C
   C124       1.0     0.517410      0.008710      0.273080     Biso  1.000000 C
   C125       1.0     0.982590      0.508710      0.273080     Biso  1.000000 C
   C126       1.0     0.017410      0.491290      0.726920     Biso  1.000000 C
   C127       1.0     0.017410      0.491290      0.273080     Biso  1.000000 C
   C128       1.0     0.982590      0.508710      0.726920     Biso  1.000000 C
   C129       1.0     0.046700      0.526460      0.187480     Biso  1.000000 C
   C130       1.0     0.953300      0.473540      0.812520     Biso  1.000000 C
   C131       1.0     0.953300      0.473540      0.187480     Biso  1.000000 C
   C132       1.0     0.046700      0.526460      0.812520     Biso  1.000000 C
   C133       1.0     0.453300      0.026460      0.812520     Biso  1.000000 C
   C134       1.0     0.546700      0.973540      0.187480     Biso  1.000000 C
   C135       1.0     0.546700      0.973540      0.812520     Biso  1.000000 C
   C136       1.0     0.453300      0.026460      0.187480     Biso  1.000000 C
   C137       1.0     0.546700      0.026460      0.687480     Biso  1.000000 C
   C138       1.0     0.453300      0.973540      0.312520     Biso  1.000000 C
   C139       1.0     0.453300      0.973540      0.687480     Biso  1.000000 C
   C140       1.0     0.546700      0.026460      0.312520     Biso  1.000000 C
   C141       1.0     0.953300      0.526460      0.312520     Biso  1.000000 C
   C142       1.0     0.046700      0.473540      0.687480     Biso  1.000000 C
   C143       1.0     0.046700      0.473540      0.312520     Biso  1.000000 C
   C144       1.0     0.953300      0.526460      0.687480     Biso  1.000000 C
   C145       1.0     0.061810      0.535800      0.166870     Biso  1.000000 C
   C146       1.0     0.938190      0.464200      0.833130     Biso  1.000000 C
   C147       1.0     0.938190      0.464200      0.166870     Biso  1.000000 C
   C148       1.0     0.061810      0.535800      0.833130     Biso  1.000000 C
   C149       1.0     0.438190      0.035800      0.833130     Biso  1.000000 C
   C150       1.0     0.561810      0.964200      0.166870     Biso  1.000000 C
   C151       1.0     0.561810      0.964200      0.833130     Biso  1.000000 C
   C152       1.0     0.438190      0.035800      0.166870     Biso  1.000000 C
   C153       1.0     0.561810      0.035800      0.666870     Biso  1.000000 C
   C154       1.0     0.438190      0.964200      0.333130     Biso  1.000000 C
   C155       1.0     0.438190      0.964200      0.666870     Biso  1.000000 C
   C156       1.0     0.561810      0.035800      0.333130     Biso  1.000000 C
   C157       1.0     0.938190      0.535800      0.333130     Biso  1.000000 C
   C158       1.0     0.061810      0.464200      0.666870     Biso  1.000000 C
   C159       1.0     0.061810      0.464200      0.333130     Biso  1.000000 C
   C160       1.0     0.938190      0.535800      0.666870     Biso  1.000000 C
   C161       1.0     0.097400      0.573570      0.100670     Biso  1.000000 C
   C162       1.0     0.902600      0.426430      0.899330     Biso  1.000000 C
   C163       1.0     0.902600      0.426430      0.100670     Biso  1.000000 C
   C164       1.0     0.097400      0.573570      0.899330     Biso  1.000000 C
   C165       1.0     0.402600      0.073570      0.899330     Biso  1.000000 C
   C166       1.0     0.597400      0.926430      0.100670     Biso  1.000000 C
   C167       1.0     0.597400      0.926430      0.899330     Biso  1.000000 C
   C168       1.0     0.402600      0.073570      0.100670     Biso  1.000000 C
   C169       1.0     0.597400      0.073570      0.600670     Biso  1.000000 C
   C170       1.0     0.402600      0.926430      0.399330     Biso  1.000000 C
   C171       1.0     0.402600      0.926430      0.600670     Biso  1.000000 C
   C172       1.0     0.597400      0.073570      0.399330     Biso  1.000000 C
   C173       1.0     0.902600      0.573570      0.399330     Biso  1.000000 C
   C174       1.0     0.097400      0.426430      0.600670     Biso  1.000000 C
   C175       1.0     0.097400      0.426430      0.399330     Biso  1.000000 C
   C176       1.0     0.902600      0.573570      0.600670     Biso  1.000000 C
   C177       1.0     0.114720      0.581870      0.079490     Biso  1.000000 C
   C178       1.0     0.885280      0.418130      0.920510     Biso  1.000000 C
   C179       1.0     0.885280      0.418130      0.079490     Biso  1.000000 C
   C180       1.0     0.114720      0.581870      0.920510     Biso  1.000000 C
   C181       1.0     0.385280      0.081870      0.920510     Biso  1.000000 C
   C182       1.0     0.614720      0.918130      0.079490     Biso  1.000000 C
   C183       1.0     0.614720      0.918130      0.920510     Biso  1.000000 C
   C184       1.0     0.385280      0.081870      0.079490     Biso  1.000000 C
   C185       1.0     0.614720      0.081870      0.579490     Biso  1.000000 C
   C186       1.0     0.385280      0.918130      0.420510     Biso  1.000000 C
   C187       1.0     0.385280      0.918130      0.579490     Biso  1.000000 C
   C188       1.0     0.614720      0.081870      0.420510     Biso  1.000000 C
   C189       1.0     0.885280      0.581870      0.420510     Biso  1.000000 C
   C190       1.0     0.114720      0.418130      0.579490     Biso  1.000000 C
   C191       1.0     0.114720      0.418130      0.420510     Biso  1.000000 C
   C192       1.0     0.885280      0.581870      0.579490     Biso  1.000000 C
   C193       1.0     0.146890      0.598150      0.039640     Biso  1.000000 C
   C194       1.0     0.853110      0.401850      0.960360     Biso  1.000000 C
   C195       1.0     0.853110      0.401850      0.039640     Biso  1.000000 C
   C196       1.0     0.146890      0.598150      0.960360     Biso  1.000000 C
   C197       1.0     0.353110      0.098150      0.960360     Biso  1.000000 C
   C198       1.0     0.646890      0.901850      0.039640     Biso  1.000000 C
   C199       1.0     0.646890      0.901850      0.960360     Biso  1.000000 C
   C200       1.0     0.353110      0.098150      0.039640     Biso  1.000000 C
   C201       1.0     0.646890      0.098150      0.539640     Biso  1.000000 C
   C202       1.0     0.353110      0.901850      0.460360     Biso  1.000000 C
   C203       1.0     0.353110      0.901850      0.539640     Biso  1.000000 C
   C204       1.0     0.646890      0.098150      0.460360     Biso  1.000000 C
   C205       1.0     0.853110      0.598150      0.460360     Biso  1.000000 C
   C206       1.0     0.146890      0.401850      0.539640     Biso  1.000000 C
   C207       1.0     0.146890      0.401850      0.460360     Biso  1.000000 C
   C208       1.0     0.853110      0.598150      0.539640     Biso  1.000000 C
   C209       1.0     0.177460      0.615990      0.037980     Biso  1.000000 C
   C210       1.0     0.822540      0.384010      0.962020     Biso  1.000000 C
   C211       1.0     0.822540      0.384010      0.037980     Biso  1.000000 C
   C212       1.0     0.177460      0.615990      0.962020     Biso  1.000000 C
   C213       1.0     0.322540      0.115990      0.962020     Biso  1.000000 C
   C214       1.0     0.677460      0.884010      0.037980     Biso  1.000000 C
   C215       1.0     0.677460      0.884010      0.962020     Biso  1.000000 C
   C216       1.0     0.322540      0.115990      0.037980     Biso  1.000000 C
   C217       1.0     0.677460      0.115990      0.537980     Biso  1.000000 C
   C218       1.0     0.322540      0.884010      0.462020     Biso  1.000000 C
   C219       1.0     0.322540      0.884010      0.537980     Biso  1.000000 C
   C220       1.0     0.677460      0.115990      0.462020     Biso  1.000000 C
   C221       1.0     0.822540      0.615990      0.462020     Biso  1.000000 C
   C222       1.0     0.177460      0.384010      0.537980     Biso  1.000000 C
   C223       1.0     0.177460      0.384010      0.462020     Biso  1.000000 C
   C224       1.0     0.822540      0.615990      0.537980     Biso  1.000000 C
   C225       1.0     0.163610      0.606840      0.019080     Biso  1.000000 C
   C226       1.0     0.836390      0.393160      0.980920     Biso  1.000000 C
   C227       1.0     0.836390      0.393160      0.019080     Biso  1.000000 C
   C228       1.0     0.163610      0.606840      0.980920     Biso  1.000000 C
   C229       1.0     0.336390      0.106840      0.980920     Biso  1.000000 C
   C230       1.0     0.663610      0.893160      0.019080     Biso  1.000000 C
   C231       1.0     0.663610      0.893160      0.980920     Biso  1.000000 C
   C232       1.0     0.336390      0.106840      0.019080     Biso  1.000000 C
   C233       1.0     0.663610      0.106840      0.519080     Biso  1.000000 C
   C234       1.0     0.336390      0.893160      0.480920     Biso  1.000000 C
   C235       1.0     0.336390      0.893160      0.519080     Biso  1.000000 C
   C236       1.0     0.663610      0.106840      0.480920     Biso  1.000000 C
   C237       1.0     0.836390      0.606840      0.480920     Biso  1.000000 C
   C238       1.0     0.163610      0.393160      0.519080     Biso  1.000000 C
   C239       1.0     0.163610      0.393160      0.480920     Biso  1.000000 C
   C240       1.0     0.836390      0.606840      0.519080     Biso  1.000000 C
   C241       1.0     0.190870      0.625090      0.019020     Biso  1.000000 C
   C242       1.0     0.809130      0.374910      0.980980     Biso  1.000000 C
   C243       1.0     0.809130      0.374910      0.019020     Biso  1.000000 C
   C244       1.0     0.190870      0.625090      0.980980     Biso  1.000000 C
   C245       1.0     0.309130      0.125090      0.980980     Biso  1.000000 C
   C246       1.0     0.690870      0.874910      0.019020     Biso  1.000000 C
   C247       1.0     0.690870      0.874910      0.980980     Biso  1.000000 C
   C248       1.0     0.309130      0.125090      0.019020     Biso  1.000000 C
   C249       1.0     0.690870      0.125090      0.519020     Biso  1.000000 C
   C250       1.0     0.309130      0.874910      0.480980     Biso  1.000000 C
   C251       1.0     0.309130      0.874910      0.519020     Biso  1.000000 C
   C252       1.0     0.690870      0.125090      0.480980     Biso  1.000000 C
   C253       1.0     0.809130      0.625090      0.480980     Biso  1.000000 C
   C254       1.0     0.190870      0.374910      0.519020     Biso  1.000000 C
   C255       1.0     0.190870      0.374910      0.480980     Biso  1.000000 C
   C256       1.0     0.809130      0.625090      0.519020     Biso  1.000000 C
   C257       1.0     0.188190      0.646830      0.019060     Biso  1.000000 C
   C258       1.0     0.811810      0.353170      0.980940     Biso  1.000000 C
   C259       1.0     0.811810      0.353170      0.019060     Biso  1.000000 C
   C260       1.0     0.188190      0.646830      0.980940     Biso  1.000000 C
   C261       1.0     0.311810      0.146830      0.980940     Biso  1.000000 C
   C262       1.0     0.688190      0.853170      0.019060     Biso  1.000000 C
   C263       1.0     0.688190      0.853170      0.980940     Biso  1.000000 C
   C264       1.0     0.311810      0.146830      0.019060     Biso  1.000000 C
   C265       1.0     0.688190      0.146830      0.519060     Biso  1.000000 C
   C266       1.0     0.311810      0.853170      0.480940     Biso  1.000000 C
   C267       1.0     0.311810      0.853170      0.519060     Biso  1.000000 C
   C268       1.0     0.688190      0.146830      0.480940     Biso  1.000000 C
   C269       1.0     0.811810      0.646830      0.480940     Biso  1.000000 C
   C270       1.0     0.188190      0.353170      0.519060     Biso  1.000000 C
   C271       1.0     0.188190      0.353170      0.480940     Biso  1.000000 C
   C272       1.0     0.811810      0.646830      0.519060     Biso  1.000000 C
   C273       1.0     0.176160      0.656300      0.038030     Biso  1.000000 C
   C274       1.0     0.823840      0.343700      0.961970     Biso  1.000000 C
   C275       1.0     0.823840      0.343700      0.038030     Biso  1.000000 C
   C276       1.0     0.176160      0.656300      0.961970     Biso  1.000000 C
   C277       1.0     0.323840      0.156300      0.961970     Biso  1.000000 C
   C278       1.0     0.676160      0.843700      0.038030     Biso  1.000000 C
   C279       1.0     0.676160      0.843700      0.961970     Biso  1.000000 C
   C280       1.0     0.323840      0.156300      0.038030     Biso  1.000000 C
   C281       1.0     0.676160      0.156300      0.538030     Biso  1.000000 C
   C282       1.0     0.323840      0.843700      0.461970     Biso  1.000000 C
   C283       1.0     0.323840      0.843700      0.538030     Biso  1.000000 C
   C284       1.0     0.676160      0.156300      0.461970     Biso  1.000000 C
   C285       1.0     0.823840      0.656300      0.461970     Biso  1.000000 C
   C286       1.0     0.176160      0.343700      0.538030     Biso  1.000000 C
   C287       1.0     0.176160      0.343700      0.461970     Biso  1.000000 C
   C288       1.0     0.823840      0.656300      0.538030     Biso  1.000000 C
   C289       1.0     0.164090      0.665900      0.019070     Biso  1.000000 C
   C290       1.0     0.835910      0.334100      0.980930     Biso  1.000000 C
   C291       1.0     0.835910      0.334100      0.019070     Biso  1.000000 C
   C292       1.0     0.164090      0.665900      0.980930     Biso  1.000000 C
   C293       1.0     0.335910      0.165900      0.980930     Biso  1.000000 C
   C294       1.0     0.664090      0.834100      0.019070     Biso  1.000000 C
   C295       1.0     0.664090      0.834100      0.980930     Biso  1.000000 C
   C296       1.0     0.335910      0.165900      0.019070     Biso  1.000000 C
   C297       1.0     0.664090      0.165900      0.519070     Biso  1.000000 C
   C298       1.0     0.335910      0.834100      0.480930     Biso  1.000000 C
   C299       1.0     0.335910      0.834100      0.519070     Biso  1.000000 C
   C300       1.0     0.664090      0.165900      0.480930     Biso  1.000000 C
   C301       1.0     0.835910      0.665900      0.480930     Biso  1.000000 C
   C302       1.0     0.164090      0.334100      0.519070     Biso  1.000000 C
   C303       1.0     0.164090      0.334100      0.480930     Biso  1.000000 C
   C304       1.0     0.835910      0.665900      0.519070     Biso  1.000000 C
   C305       1.0     0.153290      0.676280      0.039380     Biso  1.000000 C
   C306       1.0     0.846710      0.323720      0.960620     Biso  1.000000 C
   C307       1.0     0.846710      0.323720      0.039380     Biso  1.000000 C
   C308       1.0     0.153290      0.676280      0.960620     Biso  1.000000 C
   C309       1.0     0.346710      0.176280      0.960620     Biso  1.000000 C
   C310       1.0     0.653290      0.823720      0.039380     Biso  1.000000 C
   C311       1.0     0.653290      0.823720      0.960620     Biso  1.000000 C
   C312       1.0     0.346710      0.176280      0.039380     Biso  1.000000 C
   C313       1.0     0.653290      0.176280      0.539380     Biso  1.000000 C
   C314       1.0     0.346710      0.823720      0.460620     Biso  1.000000 C
   C315       1.0     0.346710      0.823720      0.539380     Biso  1.000000 C
   C316       1.0     0.653290      0.176280      0.460620     Biso  1.000000 C
   C317       1.0     0.846710      0.676280      0.460620     Biso  1.000000 C
   C318       1.0     0.153290      0.323720      0.539380     Biso  1.000000 C
   C319       1.0     0.153290      0.323720      0.460620     Biso  1.000000 C
   C320       1.0     0.846710      0.676280      0.539380     Biso  1.000000 C
   C321       1.0     0.132880      0.696560      0.076140     Biso  1.000000 C
   C322       1.0     0.867120      0.303440      0.923860     Biso  1.000000 C
   C323       1.0     0.867120      0.303440      0.076140     Biso  1.000000 C
   C324       1.0     0.132880      0.696560      0.923860     Biso  1.000000 C
   C325       1.0     0.367120      0.196560      0.923860     Biso  1.000000 C
   C326       1.0     0.632880      0.803440      0.076140     Biso  1.000000 C
   C327       1.0     0.632880      0.803440      0.923860     Biso  1.000000 C
   C328       1.0     0.367120      0.196560      0.076140     Biso  1.000000 C
   C329       1.0     0.632880      0.196560      0.576140     Biso  1.000000 C
   C330       1.0     0.367120      0.803440      0.423860     Biso  1.000000 C
   C331       1.0     0.367120      0.803440      0.576140     Biso  1.000000 C
   C332       1.0     0.632880      0.196560      0.423860     Biso  1.000000 C
   C333       1.0     0.867120      0.696560      0.423860     Biso  1.000000 C
   C334       1.0     0.132880      0.303440      0.576140     Biso  1.000000 C
   C335       1.0     0.132880      0.303440      0.423860     Biso  1.000000 C
   C336       1.0     0.867120      0.696560      0.576140     Biso  1.000000 C
   C337       1.0     0.122740      0.707300      0.095550     Biso  1.000000 C
   C338       1.0     0.877260      0.292700      0.904450     Biso  1.000000 C
   C339       1.0     0.877260      0.292700      0.095550     Biso  1.000000 C
   C340       1.0     0.122740      0.707300      0.904450     Biso  1.000000 C
   C341       1.0     0.377260      0.207300      0.904450     Biso  1.000000 C
   C342       1.0     0.622740      0.792700      0.095550     Biso  1.000000 C
   C343       1.0     0.622740      0.792700      0.904450     Biso  1.000000 C
   C344       1.0     0.377260      0.207300      0.095550     Biso  1.000000 C
   C345       1.0     0.622740      0.207300      0.595550     Biso  1.000000 C
   C346       1.0     0.377260      0.792700      0.404450     Biso  1.000000 C
   C347       1.0     0.377260      0.792700      0.595550     Biso  1.000000 C
   C348       1.0     0.622740      0.207300      0.404450     Biso  1.000000 C
   C349       1.0     0.877260      0.707300      0.404450     Biso  1.000000 C
   C350       1.0     0.122740      0.292700      0.595550     Biso  1.000000 C
   C351       1.0     0.122740      0.292700      0.404450     Biso  1.000000 C
   C352       1.0     0.877260      0.707300      0.595550     Biso  1.000000 C
   C353       1.0     0.084160      0.718480      0.121370     Biso  1.000000 C
   C354       1.0     0.915840      0.281520      0.878630     Biso  1.000000 C
   C355       1.0     0.915840      0.281520      0.121370     Biso  1.000000 C
   C356       1.0     0.084160      0.718480      0.878630     Biso  1.000000 C
   C357       1.0     0.415840      0.218480      0.878630     Biso  1.000000 C
   C358       1.0     0.584160      0.781520      0.121370     Biso  1.000000 C
   C359       1.0     0.584160      0.781520      0.878630     Biso  1.000000 C
   C360       1.0     0.415840      0.218480      0.121370     Biso  1.000000 C
   C361       1.0     0.584160      0.218480      0.621370     Biso  1.000000 C
   C362       1.0     0.415840      0.781520      0.378630     Biso  1.000000 C
   C363       1.0     0.415840      0.781520      0.621370     Biso  1.000000 C
   C364       1.0     0.584160      0.218480      0.378630     Biso  1.000000 C
   C365       1.0     0.915840      0.718480      0.378630     Biso  1.000000 C
   C366       1.0     0.084160      0.281520      0.621370     Biso  1.000000 C
   C367       1.0     0.084160      0.281520      0.378630     Biso  1.000000 C
   C368       1.0     0.915840      0.718480      0.621370     Biso  1.000000 C
   C369       1.0     0.055930      0.736810      0.160030     Biso  1.000000 C
   C370       1.0     0.944070      0.263190      0.839970     Biso  1.000000 C
   C371       1.0     0.944070      0.263190      0.160030     Biso  1.000000 C
   C372       1.0     0.055930      0.736810      0.839970     Biso  1.000000 C
   C373       1.0     0.444070      0.236810      0.839970     Biso  1.000000 C
   C374       1.0     0.555930      0.763190      0.160030     Biso  1.000000 C
   C375       1.0     0.555930      0.763190      0.839970     Biso  1.000000 C
   C376       1.0     0.444070      0.236810      0.160030     Biso  1.000000 C
   C377       1.0     0.555930      0.236810      0.660030     Biso  1.000000 C
   C378       1.0     0.444070      0.763190      0.339970     Biso  1.000000 C
   C379       1.0     0.444070      0.763190      0.660030     Biso  1.000000 C
   C380       1.0     0.555930      0.236810      0.339970     Biso  1.000000 C
   C381       1.0     0.944070      0.736810      0.339970     Biso  1.000000 C
   C382       1.0     0.055930      0.263190      0.660030     Biso  1.000000 C
   C383       1.0     0.055930      0.263190      0.339970     Biso  1.000000 C
   C384       1.0     0.944070      0.736810      0.660030     Biso  1.000000 C
   C385       1.0     0.041780      0.746080      0.181960     Biso  1.000000 C
   C386       1.0     0.958220      0.253920      0.818040     Biso  1.000000 C
   C387       1.0     0.958220      0.253920      0.181960     Biso  1.000000 C
   C388       1.0     0.041780      0.746080      0.818040     Biso  1.000000 C
   C389       1.0     0.458220      0.246080      0.818040     Biso  1.000000 C
   C390       1.0     0.541780      0.753920      0.181960     Biso  1.000000 C
   C391       1.0     0.541780      0.753920      0.818040     Biso  1.000000 C
   C392       1.0     0.458220      0.246080      0.181960     Biso  1.000000 C
   C393       1.0     0.541780      0.246080      0.681960     Biso  1.000000 C
   C394       1.0     0.458220      0.753920      0.318040     Biso  1.000000 C
   C395       1.0     0.458220      0.753920      0.681960     Biso  1.000000 C
   C396       1.0     0.541780      0.246080      0.318040     Biso  1.000000 C
   C397       1.0     0.958220      0.746080      0.318040     Biso  1.000000 C
   C398       1.0     0.041780      0.253920      0.681960     Biso  1.000000 C
   C399       1.0     0.041780      0.253920      0.318040     Biso  1.000000 C
   C400       1.0     0.958220      0.746080      0.681960     Biso  1.000000 C
   C401       1.0     0.015350      0.763900      0.224510     Biso  1.000000 C
   C402       1.0     0.984650      0.236100      0.775490     Biso  1.000000 C
   C403       1.0     0.984650      0.236100      0.224510     Biso  1.000000 C
   C404       1.0     0.015350      0.763900      0.775490     Biso  1.000000 C
   C405       1.0     0.484650      0.263900      0.775490     Biso  1.000000 C
   C406       1.0     0.515350      0.736100      0.224510     Biso  1.000000 C
   C407       1.0     0.515350      0.736100      0.775490     Biso  1.000000 C
   C408       1.0     0.484650      0.263900      0.224510     Biso  1.000000 C
   C409       1.0     0.515350      0.263900      0.724510     Biso  1.000000 C
   C410       1.0     0.484650      0.736100      0.275490     Biso  1.000000 C
   C411       1.0     0.484650      0.736100      0.724510     Biso  1.000000 C
   C412       1.0     0.515350      0.263900      0.275490     Biso  1.000000 C
   C413       1.0     0.984650      0.763900      0.275490     Biso  1.000000 C
   C414       1.0     0.015350      0.236100      0.724510     Biso  1.000000 C
   C415       1.0     0.015350      0.236100      0.275490     Biso  1.000000 C
   C416       1.0     0.984650      0.763900      0.724510     Biso  1.000000 C
   C417       1.0     0.203810      0.636290      0.035870     Biso  1.000000 C
   C418       1.0     0.796190      0.363710      0.964130     Biso  1.000000 C
   C419       1.0     0.796190      0.363710      0.035870     Biso  1.000000 C
   C420       1.0     0.203810      0.636290      0.964130     Biso  1.000000 C
   C421       1.0     0.296190      0.136290      0.964130     Biso  1.000000 C
   C422       1.0     0.703810      0.863710      0.035870     Biso  1.000000 C
   C423       1.0     0.703810      0.863710      0.964130     Biso  1.000000 C
   C424       1.0     0.296190      0.136290      0.035870     Biso  1.000000 C
   C425       1.0     0.703810      0.136290      0.535870     Biso  1.000000 C
   C426       1.0     0.296190      0.863710      0.464130     Biso  1.000000 C
   C427       1.0     0.296190      0.863710      0.535870     Biso  1.000000 C
   C428       1.0     0.703810      0.136290      0.464130     Biso  1.000000 C
   C429       1.0     0.796190      0.636290      0.464130     Biso  1.000000 C
   C430       1.0     0.203810      0.363710      0.535870     Biso  1.000000 C
   C431       1.0     0.203810      0.363710      0.464130     Biso  1.000000 C
   C432       1.0     0.796190      0.636290      0.535870     Biso  1.000000 C
   C433       1.0     0.394260      0.093750      0.073750     Biso  1.000000 C
   C434       1.0     0.605740      0.906250      0.926250     Biso  1.000000 C
   C435       1.0     0.605740      0.906250      0.073750     Biso  1.000000 C
   C436       1.0     0.394260      0.093750      0.926250     Biso  1.000000 C
   C437       1.0     0.105740      0.593750      0.926250     Biso  1.000000 C
   C438       1.0     0.894260      0.406250      0.073750     Biso  1.000000 C
   C439       1.0     0.894260      0.406250      0.926250     Biso  1.000000 C
   C440       1.0     0.105740      0.593750      0.073750     Biso  1.000000 C
   C441       1.0     0.894260      0.593750      0.573750     Biso  1.000000 C
   C442       1.0     0.105740      0.406250      0.426250     Biso  1.000000 C
   C443       1.0     0.105740      0.406250      0.573750     Biso  1.000000 C
   C444       1.0     0.894260      0.593750      0.426250     Biso  1.000000 C
   C445       1.0     0.605740      0.093750      0.426250     Biso  1.000000 C
   C446       1.0     0.394260      0.906250      0.573750     Biso  1.000000 C
   C447       1.0     0.394260      0.906250      0.426250     Biso  1.000000 C
   C448       1.0     0.605740      0.093750      0.573750     Biso  1.000000 C
   C449       1.0     0.378260      0.101840      0.054040     Biso  1.000000 C
   C450       1.0     0.621740      0.898160      0.945960     Biso  1.000000 C
   C451       1.0     0.621740      0.898160      0.054040     Biso  1.000000 C
   C452       1.0     0.378260      0.101840      0.945960     Biso  1.000000 C
   C453       1.0     0.121740      0.601840      0.945960     Biso  1.000000 C
   C454       1.0     0.878260      0.398160      0.054040     Biso  1.000000 C
   C455       1.0     0.878260      0.398160      0.945960     Biso  1.000000 C
   C456       1.0     0.121740      0.601840      0.054040     Biso  1.000000 C
   C457       1.0     0.878260      0.601840      0.554040     Biso  1.000000 C
   C458       1.0     0.121740      0.398160      0.445960     Biso  1.000000 C
   C459       1.0     0.121740      0.398160      0.554040     Biso  1.000000 C
   C460       1.0     0.878260      0.601840      0.445960     Biso  1.000000 C
   C461       1.0     0.621740      0.101840      0.445960     Biso  1.000000 C
   C462       1.0     0.378260      0.898160      0.554040     Biso  1.000000 C
   C463       1.0     0.378260      0.898160      0.445960     Biso  1.000000 C
   C464       1.0     0.621740      0.101840      0.554040     Biso  1.000000 C
   C465       1.0     0.344000      0.086300      0.045240     Biso  1.000000 C
   C466       1.0     0.656000      0.913700      0.954760     Biso  1.000000 C
   C467       1.0     0.656000      0.913700      0.045240     Biso  1.000000 C
   C468       1.0     0.344000      0.086300      0.954760     Biso  1.000000 C
   C469       1.0     0.156000      0.586300      0.954760     Biso  1.000000 C
   C470       1.0     0.844000      0.413700      0.045240     Biso  1.000000 C
   C471       1.0     0.844000      0.413700      0.954760     Biso  1.000000 C
   C472       1.0     0.156000      0.586300      0.045240     Biso  1.000000 C
   C473       1.0     0.844000      0.586300      0.545240     Biso  1.000000 C
   C474       1.0     0.156000      0.413700      0.454760     Biso  1.000000 C
   C475       1.0     0.156000      0.413700      0.545240     Biso  1.000000 C
   C476       1.0     0.844000      0.586300      0.454760     Biso  1.000000 C
   C477       1.0     0.656000      0.086300      0.454760     Biso  1.000000 C
   C478       1.0     0.344000      0.913700      0.545240     Biso  1.000000 C
   C479       1.0     0.344000      0.913700      0.454760     Biso  1.000000 C
   C480       1.0     0.656000      0.086300      0.545240     Biso  1.000000 C
   C481       1.0     0.359990      0.078180      0.065000     Biso  1.000000 C
   C482       1.0     0.640010      0.921820      0.935000     Biso  1.000000 C
   C483       1.0     0.640010      0.921820      0.065000     Biso  1.000000 C
   C484       1.0     0.359990      0.078180      0.935000     Biso  1.000000 C
   C485       1.0     0.140010      0.578180      0.935000     Biso  1.000000 C
   C486       1.0     0.859990      0.421820      0.065000     Biso  1.000000 C
   C487       1.0     0.859990      0.421820      0.935000     Biso  1.000000 C
   C488       1.0     0.140010      0.578180      0.065000     Biso  1.000000 C
   C489       1.0     0.859990      0.578180      0.565000     Biso  1.000000 C
   C490       1.0     0.140010      0.421820      0.435000     Biso  1.000000 C
   C491       1.0     0.140010      0.421820      0.565000     Biso  1.000000 C
   C492       1.0     0.859990      0.578180      0.435000     Biso  1.000000 C
   C493       1.0     0.640010      0.078180      0.435000     Biso  1.000000 C
   C494       1.0     0.359990      0.921820      0.565000     Biso  1.000000 C
   C495       1.0     0.359990      0.921820      0.435000     Biso  1.000000 C
   C496       1.0     0.640010      0.078180      0.565000     Biso  1.000000 C
   C497       1.0     0.150650      0.146710      0.063650     Biso  1.000000 C
   C498       1.0     0.849350      0.853290      0.936350     Biso  1.000000 C
   C499       1.0     0.849350      0.853290      0.063650     Biso  1.000000 C
   C500       1.0     0.150650      0.146710      0.936350     Biso  1.000000 C
   C501       1.0     0.349350      0.646710      0.936350     Biso  1.000000 C
   C502       1.0     0.650650      0.353290      0.063650     Biso  1.000000 C
   C503       1.0     0.650650      0.353290      0.936350     Biso  1.000000 C
   C504       1.0     0.349350      0.646710      0.063650     Biso  1.000000 C
   C505       1.0     0.650650      0.646710      0.563650     Biso  1.000000 C
   C506       1.0     0.349350      0.353290      0.436350     Biso  1.000000 C
   C507       1.0     0.349350      0.353290      0.563650     Biso  1.000000 C
   C508       1.0     0.650650      0.646710      0.436350     Biso  1.000000 C
   C509       1.0     0.849350      0.146710      0.436350     Biso  1.000000 C
   C510       1.0     0.150650      0.853290      0.563650     Biso  1.000000 C
   C511       1.0     0.150650      0.853290      0.436350     Biso  1.000000 C
   C512       1.0     0.849350      0.146710      0.563650     Biso  1.000000 C
   C513       1.0     0.172520      0.141570      0.044710     Biso  1.000000 C
   C514       1.0     0.827480      0.858430      0.955290     Biso  1.000000 C
   C515       1.0     0.827480      0.858430      0.044710     Biso  1.000000 C
   C516       1.0     0.172520      0.141570      0.955290     Biso  1.000000 C
   C517       1.0     0.327480      0.641570      0.955290     Biso  1.000000 C
   C518       1.0     0.672520      0.358430      0.044710     Biso  1.000000 C
   C519       1.0     0.672520      0.358430      0.955290     Biso  1.000000 C
   C520       1.0     0.327480      0.641570      0.044710     Biso  1.000000 C
   C521       1.0     0.672520      0.641570      0.544710     Biso  1.000000 C
   C522       1.0     0.327480      0.358430      0.455290     Biso  1.000000 C
   C523       1.0     0.327480      0.358430      0.544710     Biso  1.000000 C
   C524       1.0     0.672520      0.641570      0.455290     Biso  1.000000 C
   C525       1.0     0.827480      0.141570      0.455290     Biso  1.000000 C
   C526       1.0     0.172520      0.858430      0.544710     Biso  1.000000 C
   C527       1.0     0.172520      0.858430      0.455290     Biso  1.000000 C
   C528       1.0     0.827480      0.141570      0.544710     Biso  1.000000 C
   C529       1.0     0.199040      0.159810      0.053620     Biso  1.000000 C
   C530       1.0     0.800960      0.840190      0.946380     Biso  1.000000 C
   C531       1.0     0.800960      0.840190      0.053620     Biso  1.000000 C
   C532       1.0     0.199040      0.159810      0.946380     Biso  1.000000 C
   C533       1.0     0.300960      0.659810      0.946380     Biso  1.000000 C
   C534       1.0     0.699040      0.340190      0.053620     Biso  1.000000 C
   C535       1.0     0.699040      0.340190      0.946380     Biso  1.000000 C
   C536       1.0     0.300960      0.659810      0.053620     Biso  1.000000 C
   C537       1.0     0.699040      0.659810      0.553620     Biso  1.000000 C
   C538       1.0     0.300960      0.340190      0.446380     Biso  1.000000 C
   C539       1.0     0.300960      0.340190      0.553620     Biso  1.000000 C
   C540       1.0     0.699040      0.659810      0.446380     Biso  1.000000 C
   C541       1.0     0.800960      0.159810      0.446380     Biso  1.000000 C
   C542       1.0     0.199040      0.840190      0.553620     Biso  1.000000 C
   C543       1.0     0.199040      0.840190      0.446380     Biso  1.000000 C
   C544       1.0     0.800960      0.159810      0.553620     Biso  1.000000 C
   C545       1.0     0.177290      0.164950      0.072510     Biso  1.000000 C
   C546       1.0     0.822710      0.835050      0.927490     Biso  1.000000 C
   C547       1.0     0.822710      0.835050      0.072510     Biso  1.000000 C
   C548       1.0     0.177290      0.164950      0.927490     Biso  1.000000 C
   C549       1.0     0.322710      0.664950      0.927490     Biso  1.000000 C
   C550       1.0     0.677290      0.335050      0.072510     Biso  1.000000 C
   C551       1.0     0.677290      0.335050      0.927490     Biso  1.000000 C
   C552       1.0     0.322710      0.664950      0.072510     Biso  1.000000 C
   C553       1.0     0.677290      0.664950      0.572510     Biso  1.000000 C
   C554       1.0     0.322710      0.335050      0.427490     Biso  1.000000 C
   C555       1.0     0.322710      0.335050      0.572510     Biso  1.000000 C
   C556       1.0     0.677290      0.664950      0.427490     Biso  1.000000 C
   C557       1.0     0.822710      0.164950      0.427490     Biso  1.000000 C
   C558       1.0     0.177290      0.835050      0.572510     Biso  1.000000 C
   C559       1.0     0.177290      0.835050      0.427490     Biso  1.000000 C
   C560       1.0     0.822710      0.164950      0.572510     Biso  1.000000 C
   C561       1.0     0.010320      0.212010      0.200230     Biso  1.000000 C
   C562       1.0     0.989680      0.787990      0.799770     Biso  1.000000 C
   C563       1.0     0.989680      0.787990      0.200230     Biso  1.000000 C
   C564       1.0     0.010320      0.212010      0.799770     Biso  1.000000 C
   C565       1.0     0.489680      0.712010      0.799770     Biso  1.000000 C
   C566       1.0     0.510320      0.287990      0.200230     Biso  1.000000 C
   C567       1.0     0.510320      0.287990      0.799770     Biso  1.000000 C
   C568       1.0     0.489680      0.712010      0.200230     Biso  1.000000 C
   C569       1.0     0.510320      0.712010      0.700230     Biso  1.000000 C
   C570       1.0     0.489680      0.287990      0.299770     Biso  1.000000 C
   C571       1.0     0.489680      0.287990      0.700230     Biso  1.000000 C
   C572       1.0     0.510320      0.712010      0.299770     Biso  1.000000 C
   C573       1.0     0.989680      0.212010      0.299770     Biso  1.000000 C
   C574       1.0     0.010320      0.787990      0.700230     Biso  1.000000 C
   C575       1.0     0.010320      0.787990      0.299770     Biso  1.000000 C
   C576       1.0     0.989680      0.212010      0.700230     Biso  1.000000 C
   C577       1.0     0.027910      0.204330      0.181340     Biso  1.000000 C
   C578       1.0     0.972090      0.795670      0.818660     Biso  1.000000 C
   C579       1.0     0.972090      0.795670      0.181340     Biso  1.000000 C
   C580       1.0     0.027910      0.204330      0.818660     Biso  1.000000 C
   C581       1.0     0.472090      0.704330      0.818660     Biso  1.000000 C
   C582       1.0     0.527910      0.295670      0.181340     Biso  1.000000 C
   C583       1.0     0.527910      0.295670      0.818660     Biso  1.000000 C
   C584       1.0     0.472090      0.704330      0.181340     Biso  1.000000 C
   C585       1.0     0.527910      0.704330      0.681340     Biso  1.000000 C
   C586       1.0     0.472090      0.295670      0.318660     Biso  1.000000 C
   C587       1.0     0.472090      0.295670      0.681340     Biso  1.000000 C
   C588       1.0     0.527910      0.704330      0.318660     Biso  1.000000 C
   C589       1.0     0.972090      0.204330      0.318660     Biso  1.000000 C
   C590       1.0     0.027910      0.795670      0.681340     Biso  1.000000 C
   C591       1.0     0.027910      0.795670      0.318660     Biso  1.000000 C
   C592       1.0     0.972090      0.204330      0.681340     Biso  1.000000 C
   C593       1.0     0.055170      0.202850      0.192420     Biso  1.000000 C
   C594       1.0     0.944830      0.797150      0.807580     Biso  1.000000 C
   C595       1.0     0.944830      0.797150      0.192420     Biso  1.000000 C
   C596       1.0     0.055170      0.202850      0.807580     Biso  1.000000 C
   C597       1.0     0.444830      0.702850      0.807580     Biso  1.000000 C
   C598       1.0     0.555170      0.297150      0.192420     Biso  1.000000 C
   C599       1.0     0.555170      0.297150      0.807580     Biso  1.000000 C
   C600       1.0     0.444830      0.702850      0.192420     Biso  1.000000 C
   C601       1.0     0.555170      0.702850      0.692420     Biso  1.000000 C
   C602       1.0     0.444830      0.297150      0.307580     Biso  1.000000 C
   C603       1.0     0.444830      0.297150      0.692420     Biso  1.000000 C
   C604       1.0     0.555170      0.702850      0.307580     Biso  1.000000 C
   C605       1.0     0.944830      0.202850      0.307580     Biso  1.000000 C
   C606       1.0     0.055170      0.797150      0.692420     Biso  1.000000 C
   C607       1.0     0.055170      0.797150      0.307580     Biso  1.000000 C
   C608       1.0     0.944830      0.202850      0.692420     Biso  1.000000 C
   C609       1.0     0.063990      0.208630      0.223870     Biso  1.000000 C
   C610       1.0     0.936010      0.791370      0.776130     Biso  1.000000 C
   C611       1.0     0.936010      0.791370      0.223870     Biso  1.000000 C
   C612       1.0     0.063990      0.208630      0.776130     Biso  1.000000 C
   C613       1.0     0.436010      0.708630      0.776130     Biso  1.000000 C
   C614       1.0     0.563990      0.291370      0.223870     Biso  1.000000 C
   C615       1.0     0.563990      0.291370      0.776130     Biso  1.000000 C
   C616       1.0     0.436010      0.708630      0.223870     Biso  1.000000 C
   C617       1.0     0.563990      0.708630      0.723870     Biso  1.000000 C
   C618       1.0     0.436010      0.291370      0.276130     Biso  1.000000 C
   C619       1.0     0.436010      0.291370      0.723870     Biso  1.000000 C
   C620       1.0     0.563990      0.708630      0.276130     Biso  1.000000 C
   C621       1.0     0.936010      0.208630      0.276130     Biso  1.000000 C
   C622       1.0     0.063990      0.791370      0.723870     Biso  1.000000 C
   C623       1.0     0.063990      0.791370      0.276130     Biso  1.000000 C
   C624       1.0     0.936010      0.208630      0.723870     Biso  1.000000 C
   C625       1.0     0.046460      0.216300      0.242710     Biso  1.000000 C
   C626       1.0     0.953540      0.783700      0.757290     Biso  1.000000 C
   C627       1.0     0.953540      0.783700      0.242710     Biso  1.000000 C
   C628       1.0     0.046460      0.216300      0.757290     Biso  1.000000 C
   C629       1.0     0.453540      0.716300      0.757290     Biso  1.000000 C
   C630       1.0     0.546460      0.283700      0.242710     Biso  1.000000 C
   C631       1.0     0.546460      0.283700      0.757290     Biso  1.000000 C
   C632       1.0     0.453540      0.716300      0.242710     Biso  1.000000 C
   C633       1.0     0.546460      0.716300      0.742710     Biso  1.000000 C
   C634       1.0     0.453540      0.283700      0.257290     Biso  1.000000 C
   C635       1.0     0.453540      0.283700      0.742710     Biso  1.000000 C
   C636       1.0     0.546460      0.716300      0.257290     Biso  1.000000 C
   C637       1.0     0.953540      0.216300      0.257290     Biso  1.000000 C
   C638       1.0     0.046460      0.783700      0.742710     Biso  1.000000 C
   C639       1.0     0.046460      0.783700      0.257290     Biso  1.000000 C
   C640       1.0     0.953540      0.216300      0.742710     Biso  1.000000 C
   C641       1.0     0.074550      0.195430      0.171110     Biso  1.000000 C
   C642       1.0     0.925450      0.804570      0.828890     Biso  1.000000 C
   C643       1.0     0.925450      0.804570      0.171110     Biso  1.000000 C
   C644       1.0     0.074550      0.195430      0.828890     Biso  1.000000 C
   C645       1.0     0.425450      0.695430      0.828890     Biso  1.000000 C
   C646       1.0     0.574550      0.304570      0.171110     Biso  1.000000 C
   C647       1.0     0.574550      0.304570      0.828890     Biso  1.000000 C
   C648       1.0     0.425450      0.695430      0.171110     Biso  1.000000 C
   C649       1.0     0.574550      0.695430      0.671110     Biso  1.000000 C
   C650       1.0     0.425450      0.304570      0.328890     Biso  1.000000 C
   C651       1.0     0.425450      0.304570      0.671110     Biso  1.000000 C
   C652       1.0     0.574550      0.695430      0.328890     Biso  1.000000 C
   C653       1.0     0.925450      0.195430      0.328890     Biso  1.000000 C
   C654       1.0     0.074550      0.804570      0.671110     Biso  1.000000 C
   C655       1.0     0.074550      0.804570      0.328890     Biso  1.000000 C
   C656       1.0     0.925450      0.195430      0.671110     Biso  1.000000 C
   C657       1.0     0.006750      0.513600      0.194780     Biso  1.000000 C
   C658       1.0     0.993250      0.486400      0.805220     Biso  1.000000 C
   C659       1.0     0.993250      0.486400      0.194780     Biso  1.000000 C
   C660       1.0     0.006750      0.513600      0.805220     Biso  1.000000 C
   C661       1.0     0.493250      0.013600      0.805220     Biso  1.000000 C
   C662       1.0     0.506750      0.986400      0.194780     Biso  1.000000 C
   C663       1.0     0.506750      0.986400      0.805220     Biso  1.000000 C
   C664       1.0     0.493250      0.013600      0.194780     Biso  1.000000 C
   C665       1.0     0.506750      0.013600      0.694780     Biso  1.000000 C
   C666       1.0     0.493250      0.986400      0.305220     Biso  1.000000 C
   C667       1.0     0.493250      0.986400      0.694780     Biso  1.000000 C
   C668       1.0     0.506750      0.013600      0.305220     Biso  1.000000 C
   C669       1.0     0.993250      0.513600      0.305220     Biso  1.000000 C
   C670       1.0     0.006750      0.486400      0.694780     Biso  1.000000 C
   C671       1.0     0.006750      0.486400      0.305220     Biso  1.000000 C
   C672       1.0     0.993250      0.513600      0.694780     Biso  1.000000 C
   C673       1.0     0.021370      0.522170      0.175100     Biso  1.000000 C
   C674       1.0     0.978630      0.477830      0.824900     Biso  1.000000 C
   C675       1.0     0.978630      0.477830      0.175100     Biso  1.000000 C
   C676       1.0     0.021370      0.522170      0.824900     Biso  1.000000 C
   C677       1.0     0.478630      0.022170      0.824900     Biso  1.000000 C
   C678       1.0     0.521370      0.977830      0.175100     Biso  1.000000 C
   C679       1.0     0.521370      0.977830      0.824900     Biso  1.000000 C
   C680       1.0     0.478630      0.022170      0.175100     Biso  1.000000 C
   C681       1.0     0.521370      0.022170      0.675100     Biso  1.000000 C
   C682       1.0     0.478630      0.977830      0.324900     Biso  1.000000 C
   C683       1.0     0.478630      0.977830      0.675100     Biso  1.000000 C
   C684       1.0     0.521370      0.022170      0.324900     Biso  1.000000 C
   C685       1.0     0.978630      0.522170      0.324900     Biso  1.000000 C
   C686       1.0     0.021370      0.477830      0.675100     Biso  1.000000 C
   C687       1.0     0.021370      0.477830      0.324900     Biso  1.000000 C
   C688       1.0     0.978630      0.522170      0.675100     Biso  1.000000 C
   C689       1.0     0.056870      0.522140      0.220310     Biso  1.000000 C
   C690       1.0     0.943130      0.477860      0.779690     Biso  1.000000 C
   C691       1.0     0.943130      0.477860      0.220310     Biso  1.000000 C
   C692       1.0     0.056870      0.522140      0.779690     Biso  1.000000 C
   C693       1.0     0.443130      0.022140      0.779690     Biso  1.000000 C
   C694       1.0     0.556870      0.977860      0.220310     Biso  1.000000 C
   C695       1.0     0.556870      0.977860      0.779690     Biso  1.000000 C
   C696       1.0     0.443130      0.022140      0.220310     Biso  1.000000 C
   C697       1.0     0.556870      0.022140      0.720310     Biso  1.000000 C
   C698       1.0     0.443130      0.977860      0.279690     Biso  1.000000 C
   C699       1.0     0.443130      0.977860      0.720310     Biso  1.000000 C
   C700       1.0     0.556870      0.022140      0.279690     Biso  1.000000 C
   C701       1.0     0.943130      0.522140      0.279690     Biso  1.000000 C
   C702       1.0     0.056870      0.477860      0.720310     Biso  1.000000 C
   C703       1.0     0.056870      0.477860      0.279690     Biso  1.000000 C
   C704       1.0     0.943130      0.522140      0.720310     Biso  1.000000 C
   C705       1.0     0.042240      0.513550      0.240030     Biso  1.000000 C
   C706       1.0     0.957760      0.486450      0.759970     Biso  1.000000 C
   C707       1.0     0.957760      0.486450      0.240030     Biso  1.000000 C
   C708       1.0     0.042240      0.513550      0.759970     Biso  1.000000 C
   C709       1.0     0.457760      0.013550      0.759970     Biso  1.000000 C
   C710       1.0     0.542240      0.986450      0.240030     Biso  1.000000 C
   C711       1.0     0.542240      0.986450      0.759970     Biso  1.000000 C
   C712       1.0     0.457760      0.013550      0.240030     Biso  1.000000 C
   C713       1.0     0.542240      0.013550      0.740030     Biso  1.000000 C
   C714       1.0     0.457760      0.986450      0.259970     Biso  1.000000 C
   C715       1.0     0.457760      0.986450      0.740030     Biso  1.000000 C
   C716       1.0     0.542240      0.013550      0.259970     Biso  1.000000 C
   C717       1.0     0.957760      0.513550      0.259970     Biso  1.000000 C
   C718       1.0     0.042240      0.486450      0.740030     Biso  1.000000 C
   C719       1.0     0.042240      0.486450      0.259970     Biso  1.000000 C
   C720       1.0     0.957760      0.513550      0.740030     Biso  1.000000 C
   C721       1.0     0.090110      0.534710      0.160340     Biso  1.000000 C
   C722       1.0     0.909890      0.465290      0.839660     Biso  1.000000 C
   C723       1.0     0.909890      0.465290      0.160340     Biso  1.000000 C
   C724       1.0     0.090110      0.534710      0.839660     Biso  1.000000 C
   C725       1.0     0.409890      0.034710      0.839660     Biso  1.000000 C
   C726       1.0     0.590110      0.965290      0.160340     Biso  1.000000 C
   C727       1.0     0.590110      0.965290      0.839660     Biso  1.000000 C
   C728       1.0     0.409890      0.034710      0.160340     Biso  1.000000 C
   C729       1.0     0.590110      0.034710      0.660340     Biso  1.000000 C
   C730       1.0     0.409890      0.965290      0.339660     Biso  1.000000 C
   C731       1.0     0.409890      0.965290      0.660340     Biso  1.000000 C
   C732       1.0     0.590110      0.034710      0.339660     Biso  1.000000 C
   C733       1.0     0.909890      0.534710      0.339660     Biso  1.000000 C
   C734       1.0     0.090110      0.465290      0.660340     Biso  1.000000 C
   C735       1.0     0.090110      0.465290      0.339660     Biso  1.000000 C
   C736       1.0     0.909890      0.534710      0.660340     Biso  1.000000 C
   C737       1.0     0.103960      0.543610      0.140780     Biso  1.000000 C
   C738       1.0     0.896040      0.456390      0.859220     Biso  1.000000 C
   C739       1.0     0.896040      0.456390      0.140780     Biso  1.000000 C
   C740       1.0     0.103960      0.543610      0.859220     Biso  1.000000 C
   C741       1.0     0.396040      0.043610      0.859220     Biso  1.000000 C
   C742       1.0     0.603960      0.956390      0.140780     Biso  1.000000 C
   C743       1.0     0.603960      0.956390      0.859220     Biso  1.000000 C
   C744       1.0     0.396040      0.043610      0.140780     Biso  1.000000 C
   C745       1.0     0.603960      0.043610      0.640780     Biso  1.000000 C
   C746       1.0     0.396040      0.956390      0.359220     Biso  1.000000 C
   C747       1.0     0.396040      0.956390      0.640780     Biso  1.000000 C
   C748       1.0     0.603960      0.043610      0.359220     Biso  1.000000 C
   C749       1.0     0.896040      0.543610      0.359220     Biso  1.000000 C
   C750       1.0     0.103960      0.456390      0.640780     Biso  1.000000 C
   C751       1.0     0.103960      0.456390      0.359220     Biso  1.000000 C
   C752       1.0     0.896040      0.543610      0.640780     Biso  1.000000 C
   C753       1.0     0.090050      0.553750      0.127660     Biso  1.000000 C
   C754       1.0     0.909950      0.446250      0.872340     Biso  1.000000 C
   C755       1.0     0.909950      0.446250      0.127660     Biso  1.000000 C
   C756       1.0     0.090050      0.553750      0.872340     Biso  1.000000 C
   C757       1.0     0.409950      0.053750      0.872340     Biso  1.000000 C
   C758       1.0     0.590050      0.946250      0.127660     Biso  1.000000 C
   C759       1.0     0.590050      0.946250      0.872340     Biso  1.000000 C
   C760       1.0     0.409950      0.053750      0.127660     Biso  1.000000 C
   C761       1.0     0.590050      0.053750      0.627660     Biso  1.000000 C
   C762       1.0     0.409950      0.946250      0.372340     Biso  1.000000 C
   C763       1.0     0.409950      0.946250      0.627660     Biso  1.000000 C
   C764       1.0     0.590050      0.053750      0.372340     Biso  1.000000 C
   C765       1.0     0.909950      0.553750      0.372340     Biso  1.000000 C
   C766       1.0     0.090050      0.446250      0.627660     Biso  1.000000 C
   C767       1.0     0.090050      0.446250      0.372340     Biso  1.000000 C
   C768       1.0     0.909950      0.553750      0.627660     Biso  1.000000 C
   C769       1.0     0.061660      0.554750      0.133700     Biso  1.000000 C
   C770       1.0     0.938340      0.445250      0.866300     Biso  1.000000 C
   C771       1.0     0.938340      0.445250      0.133700     Biso  1.000000 C
   C772       1.0     0.061660      0.554750      0.866300     Biso  1.000000 C
   C773       1.0     0.438340      0.054750      0.866300     Biso  1.000000 C
   C774       1.0     0.561660      0.945250      0.133700     Biso  1.000000 C
   C775       1.0     0.561660      0.945250      0.866300     Biso  1.000000 C
   C776       1.0     0.438340      0.054750      0.133700     Biso  1.000000 C
   C777       1.0     0.561660      0.054750      0.633700     Biso  1.000000 C
   C778       1.0     0.438340      0.945250      0.366300     Biso  1.000000 C
   C779       1.0     0.438340      0.945250      0.633700     Biso  1.000000 C
   C780       1.0     0.561660      0.054750      0.366300     Biso  1.000000 C
   C781       1.0     0.938340      0.554750      0.366300     Biso  1.000000 C
   C782       1.0     0.061660      0.445250      0.633700     Biso  1.000000 C
   C783       1.0     0.061660      0.445250      0.366300     Biso  1.000000 C
   C784       1.0     0.938340      0.554750      0.633700     Biso  1.000000 C
   C785       1.0     0.047780      0.545870      0.153190     Biso  1.000000 C
   C786       1.0     0.952220      0.454130      0.846810     Biso  1.000000 C
   C787       1.0     0.952220      0.454130      0.153190     Biso  1.000000 C
   C788       1.0     0.047780      0.545870      0.846810     Biso  1.000000 C
   C789       1.0     0.452220      0.045870      0.846810     Biso  1.000000 C
   C790       1.0     0.547780      0.954130      0.153190     Biso  1.000000 C
   C791       1.0     0.547780      0.954130      0.846810     Biso  1.000000 C
   C792       1.0     0.452220      0.045870      0.153190     Biso  1.000000 C
   C793       1.0     0.547780      0.045870      0.653190     Biso  1.000000 C
   C794       1.0     0.452220      0.954130      0.346810     Biso  1.000000 C
   C795       1.0     0.452220      0.954130      0.653190     Biso  1.000000 C
   C796       1.0     0.547780      0.045870      0.346810     Biso  1.000000 C
   C797       1.0     0.952220      0.545870      0.346810     Biso  1.000000 C
   C798       1.0     0.047780      0.454130      0.653190     Biso  1.000000 C
   C799       1.0     0.047780      0.454130      0.346810     Biso  1.000000 C
   C800       1.0     0.952220      0.545870      0.653190     Biso  1.000000 C
   C801       1.0     0.838880      0.304720      0.070130     Biso  1.000000 C
   C802       1.0     0.161120      0.695280      0.929870     Biso  1.000000 C
   C803       1.0     0.161120      0.695280      0.070130     Biso  1.000000 C
   C804       1.0     0.838880      0.304720      0.929870     Biso  1.000000 C
   C805       1.0     0.661120      0.804720      0.929870     Biso  1.000000 C
   C806       1.0     0.338880      0.195280      0.070130     Biso  1.000000 C
   C807       1.0     0.338880      0.195280      0.929870     Biso  1.000000 C
   C808       1.0     0.661120      0.804720      0.070130     Biso  1.000000 C
   C809       1.0     0.338880      0.804720      0.570130     Biso  1.000000 C
   C810       1.0     0.661120      0.195280      0.429870     Biso  1.000000 C
   C811       1.0     0.661120      0.195280      0.570130     Biso  1.000000 C
   C812       1.0     0.338880      0.804720      0.429870     Biso  1.000000 C
   C813       1.0     0.161120      0.304720      0.429870     Biso  1.000000 C
   C814       1.0     0.838880      0.695280      0.570130     Biso  1.000000 C
   C815       1.0     0.838880      0.695280      0.429870     Biso  1.000000 C
   C816       1.0     0.161120      0.304720      0.570130     Biso  1.000000 C
   C817       1.0     0.828740      0.314800      0.051910     Biso  1.000000 C
   C818       1.0     0.171260      0.685200      0.948090     Biso  1.000000 C
   C819       1.0     0.171260      0.685200      0.051910     Biso  1.000000 C
   C820       1.0     0.828740      0.314800      0.948090     Biso  1.000000 C
   C821       1.0     0.671260      0.814800      0.948090     Biso  1.000000 C
   C822       1.0     0.328740      0.185200      0.051910     Biso  1.000000 C
   C823       1.0     0.328740      0.185200      0.948090     Biso  1.000000 C
   C824       1.0     0.671260      0.814800      0.051910     Biso  1.000000 C
   C825       1.0     0.328740      0.814800      0.551910     Biso  1.000000 C
   C826       1.0     0.671260      0.185200      0.448090     Biso  1.000000 C
   C827       1.0     0.671260      0.185200      0.551910     Biso  1.000000 C
   C828       1.0     0.328740      0.814800      0.448090     Biso  1.000000 C
   C829       1.0     0.171260      0.314800      0.448090     Biso  1.000000 C
   C830       1.0     0.828740      0.685200      0.551910     Biso  1.000000 C
   C831       1.0     0.828740      0.685200      0.448090     Biso  1.000000 C
   C832       1.0     0.171260      0.314800      0.551910     Biso  1.000000 C
   C833       1.0     0.874900      0.322530      0.045390     Biso  1.000000 C
   C834       1.0     0.125100      0.677470      0.954610     Biso  1.000000 C
   C835       1.0     0.125100      0.677470      0.045390     Biso  1.000000 C
   C836       1.0     0.874900      0.322530      0.954610     Biso  1.000000 C
   C837       1.0     0.625100      0.822530      0.954610     Biso  1.000000 C
   C838       1.0     0.374900      0.177470      0.045390     Biso  1.000000 C
   C839       1.0     0.374900      0.177470      0.954610     Biso  1.000000 C
   C840       1.0     0.625100      0.822530      0.045390     Biso  1.000000 C
   C841       1.0     0.374900      0.822530      0.545390     Biso  1.000000 C
   C842       1.0     0.625100      0.177470      0.454610     Biso  1.000000 C
   C843       1.0     0.625100      0.177470      0.545390     Biso  1.000000 C
   C844       1.0     0.374900      0.822530      0.454610     Biso  1.000000 C
   C845       1.0     0.125100      0.322530      0.454610     Biso  1.000000 C
   C846       1.0     0.874900      0.677470      0.545390     Biso  1.000000 C
   C847       1.0     0.874900      0.677470      0.454610     Biso  1.000000 C
   C848       1.0     0.125100      0.322530      0.545390     Biso  1.000000 C
   C849       1.0     0.885090      0.312450      0.063660     Biso  1.000000 C
   C850       1.0     0.114910      0.687550      0.936340     Biso  1.000000 C
   C851       1.0     0.114910      0.687550      0.063660     Biso  1.000000 C
   C852       1.0     0.885090      0.312450      0.936340     Biso  1.000000 C
   C853       1.0     0.614910      0.812450      0.936340     Biso  1.000000 C
   C854       1.0     0.385090      0.187550      0.063660     Biso  1.000000 C
   C855       1.0     0.385090      0.187550      0.936340     Biso  1.000000 C
   C856       1.0     0.614910      0.812450      0.063660     Biso  1.000000 C
   C857       1.0     0.385090      0.812450      0.563660     Biso  1.000000 C
   C858       1.0     0.614910      0.187550      0.436340     Biso  1.000000 C
   C859       1.0     0.614910      0.187550      0.563660     Biso  1.000000 C
   C860       1.0     0.385090      0.812450      0.436340     Biso  1.000000 C
   C861       1.0     0.114910      0.312450      0.436340     Biso  1.000000 C
   C862       1.0     0.885090      0.687550      0.563660     Biso  1.000000 C
   C863       1.0     0.885090      0.687550      0.436340     Biso  1.000000 C
   C864       1.0     0.114910      0.312450      0.563660     Biso  1.000000 C
   C865       1.0     0.993890      0.238770      0.189400     Biso  1.000000 C
   C866       1.0     0.006110      0.761230      0.810600     Biso  1.000000 C
   C867       1.0     0.006110      0.761230      0.189400     Biso  1.000000 C
   C868       1.0     0.993890      0.238770      0.810600     Biso  1.000000 C
   C869       1.0     0.506110      0.738770      0.810600     Biso  1.000000 C
   C870       1.0     0.493890      0.261230      0.189400     Biso  1.000000 C
   C871       1.0     0.493890      0.261230      0.810600     Biso  1.000000 C
   C872       1.0     0.506110      0.738770      0.189400     Biso  1.000000 C
   C873       1.0     0.493890      0.738770      0.689400     Biso  1.000000 C
   C874       1.0     0.506110      0.261230      0.310600     Biso  1.000000 C
   C875       1.0     0.506110      0.261230      0.689400     Biso  1.000000 C
   C876       1.0     0.493890      0.738770      0.310600     Biso  1.000000 C
   C877       1.0     0.006110      0.238770      0.310600     Biso  1.000000 C
   C878       1.0     0.993890      0.761230      0.689400     Biso  1.000000 C
   C879       1.0     0.993890      0.761230      0.310600     Biso  1.000000 C
   C880       1.0     0.006110      0.238770      0.689400     Biso  1.000000 C
   C881       1.0     0.980560      0.247410      0.168280     Biso  1.000000 C
   C882       1.0     0.019440      0.752590      0.831720     Biso  1.000000 C
   C883       1.0     0.019440      0.752590      0.168280     Biso  1.000000 C
   C884       1.0     0.980560      0.247410      0.831720     Biso  1.000000 C
   C885       1.0     0.519440      0.747410      0.831720     Biso  1.000000 C
   C886       1.0     0.480560      0.252590      0.168280     Biso  1.000000 C
   C887       1.0     0.480560      0.252590      0.831720     Biso  1.000000 C
   C888       1.0     0.519440      0.747410      0.168280     Biso  1.000000 C
   C889       1.0     0.480560      0.747410      0.668280     Biso  1.000000 C
   C890       1.0     0.519440      0.252590      0.331720     Biso  1.000000 C
   C891       1.0     0.519440      0.252590      0.668280     Biso  1.000000 C
   C892       1.0     0.480560      0.747410      0.331720     Biso  1.000000 C
   C893       1.0     0.019440      0.247410      0.331720     Biso  1.000000 C
   C894       1.0     0.980560      0.752590      0.668280     Biso  1.000000 C
   C895       1.0     0.980560      0.752590      0.331720     Biso  1.000000 C
   C896       1.0     0.019440      0.247410      0.668280     Biso  1.000000 C
   C897       1.0     0.949470      0.251640      0.217160     Biso  1.000000 C
   C898       1.0     0.050530      0.748360      0.782840     Biso  1.000000 C
   C899       1.0     0.050530      0.748360      0.217160     Biso  1.000000 C
   C900       1.0     0.949470      0.251640      0.782840     Biso  1.000000 C
   C901       1.0     0.550530      0.751640      0.782840     Biso  1.000000 C
   C902       1.0     0.449470      0.248360      0.217160     Biso  1.000000 C
   C903       1.0     0.449470      0.248360      0.782840     Biso  1.000000 C
   C904       1.0     0.550530      0.751640      0.217160     Biso  1.000000 C
   C905       1.0     0.449470      0.751640      0.717160     Biso  1.000000 C
   C906       1.0     0.550530      0.248360      0.282840     Biso  1.000000 C
   C907       1.0     0.550530      0.248360      0.717160     Biso  1.000000 C
   C908       1.0     0.449470      0.751640      0.282840     Biso  1.000000 C
   C909       1.0     0.050530      0.251640      0.282840     Biso  1.000000 C
   C910       1.0     0.949470      0.748360      0.717160     Biso  1.000000 C
   C911       1.0     0.949470      0.748360      0.282840     Biso  1.000000 C
   C912       1.0     0.050530      0.251640      0.717160     Biso  1.000000 C
   C913       1.0     0.962720      0.243030      0.238250     Biso  1.000000 C
   C914       1.0     0.037280      0.756970      0.761750     Biso  1.000000 C
   C915       1.0     0.037280      0.756970      0.238250     Biso  1.000000 C
   C916       1.0     0.962720      0.243030      0.761750     Biso  1.000000 C
   C917       1.0     0.537280      0.743030      0.761750     Biso  1.000000 C
   C918       1.0     0.462720      0.256970      0.238250     Biso  1.000000 C
   C919       1.0     0.462720      0.256970      0.761750     Biso  1.000000 C
   C920       1.0     0.537280      0.743030      0.238250     Biso  1.000000 C
   C921       1.0     0.462720      0.743030      0.738250     Biso  1.000000 C
   C922       1.0     0.537280      0.256970      0.261750     Biso  1.000000 C
   C923       1.0     0.537280      0.256970      0.738250     Biso  1.000000 C
   C924       1.0     0.462720      0.743030      0.261750     Biso  1.000000 C
   C925       1.0     0.037280      0.243030      0.261750     Biso  1.000000 C
   C926       1.0     0.962720      0.756970      0.738250     Biso  1.000000 C
   C927       1.0     0.962720      0.756970      0.261750     Biso  1.000000 C
   C928       1.0     0.037280      0.243030      0.738250     Biso  1.000000 C
   C929       1.0     0.913820      0.263880      0.160250     Biso  1.000000 C
   C930       1.0     0.086180      0.736120      0.839750     Biso  1.000000 C
   C931       1.0     0.086180      0.736120      0.160250     Biso  1.000000 C
   C932       1.0     0.913820      0.263880      0.839750     Biso  1.000000 C
   C933       1.0     0.586180      0.763880      0.839750     Biso  1.000000 C
   C934       1.0     0.413820      0.236120      0.160250     Biso  1.000000 C
   C935       1.0     0.413820      0.236120      0.839750     Biso  1.000000 C
   C936       1.0     0.586180      0.763880      0.160250     Biso  1.000000 C
   C937       1.0     0.413820      0.763880      0.660250     Biso  1.000000 C
   C938       1.0     0.586180      0.236120      0.339750     Biso  1.000000 C
   C939       1.0     0.586180      0.236120      0.660250     Biso  1.000000 C
   C940       1.0     0.413820      0.763880      0.339750     Biso  1.000000 C
   C941       1.0     0.086180      0.263880      0.339750     Biso  1.000000 C
   C942       1.0     0.913820      0.736120      0.660250     Biso  1.000000 C
   C943       1.0     0.913820      0.736120      0.339750     Biso  1.000000 C
   C944       1.0     0.086180      0.263880      0.660250     Biso  1.000000 C
   C945       1.0     0.900600      0.273000      0.141170     Biso  1.000000 C
   C946       1.0     0.099400      0.727000      0.858830     Biso  1.000000 C
   C947       1.0     0.099400      0.727000      0.141170     Biso  1.000000 C
   C948       1.0     0.900600      0.273000      0.858830     Biso  1.000000 C
   C949       1.0     0.599400      0.773000      0.858830     Biso  1.000000 C
   C950       1.0     0.400600      0.227000      0.141170     Biso  1.000000 C
   C951       1.0     0.400600      0.227000      0.858830     Biso  1.000000 C
   C952       1.0     0.599400      0.773000      0.141170     Biso  1.000000 C
   C953       1.0     0.400600      0.773000      0.641170     Biso  1.000000 C
   C954       1.0     0.599400      0.227000      0.358830     Biso  1.000000 C
   C955       1.0     0.599400      0.227000      0.641170     Biso  1.000000 C
   C956       1.0     0.400600      0.773000      0.358830     Biso  1.000000 C
   C957       1.0     0.099400      0.273000      0.358830     Biso  1.000000 C
   C958       1.0     0.900600      0.727000      0.641170     Biso  1.000000 C
   C959       1.0     0.900600      0.727000      0.358830     Biso  1.000000 C
   C960       1.0     0.099400      0.273000      0.641170     Biso  1.000000 C
   C961       1.0     0.944530      0.280820      0.121150     Biso  1.000000 C
   C962       1.0     0.055470      0.719180      0.878850     Biso  1.000000 C
   C963       1.0     0.055470      0.719180      0.121150     Biso  1.000000 C
   C964       1.0     0.944530      0.280820      0.878850     Biso  1.000000 C
   C965       1.0     0.555470      0.780820      0.878850     Biso  1.000000 C
   C966       1.0     0.444530      0.219180      0.121150     Biso  1.000000 C
   C967       1.0     0.444530      0.219180      0.878850     Biso  1.000000 C
   C968       1.0     0.555470      0.780820      0.121150     Biso  1.000000 C
   C969       1.0     0.444530      0.780820      0.621150     Biso  1.000000 C
   C970       1.0     0.555470      0.219180      0.378850     Biso  1.000000 C
   C971       1.0     0.555470      0.219180      0.621150     Biso  1.000000 C
   C972       1.0     0.444530      0.780820      0.378850     Biso  1.000000 C
   C973       1.0     0.055470      0.280820      0.378850     Biso  1.000000 C
   C974       1.0     0.944530      0.719180      0.621150     Biso  1.000000 C
   C975       1.0     0.944530      0.719180      0.378850     Biso  1.000000 C
   C976       1.0     0.055470      0.280820      0.621150     Biso  1.000000 C
   C977       1.0     0.958580      0.271840      0.140090     Biso  1.000000 C
   C978       1.0     0.041420      0.728160      0.859910     Biso  1.000000 C
   C979       1.0     0.041420      0.728160      0.140090     Biso  1.000000 C
   C980       1.0     0.958580      0.271840      0.859910     Biso  1.000000 C
   C981       1.0     0.541420      0.771840      0.859910     Biso  1.000000 C
   C982       1.0     0.458580      0.228160      0.140090     Biso  1.000000 C
   C983       1.0     0.458580      0.228160      0.859910     Biso  1.000000 C
   C984       1.0     0.541420      0.771840      0.140090     Biso  1.000000 C
   C985       1.0     0.458580      0.771840      0.640090     Biso  1.000000 C
   C986       1.0     0.541420      0.228160      0.359910     Biso  1.000000 C
   C987       1.0     0.541420      0.228160      0.640090     Biso  1.000000 C
   C988       1.0     0.458580      0.771840      0.359910     Biso  1.000000 C
   C989       1.0     0.041420      0.271840      0.359910     Biso  1.000000 C
   C990       1.0     0.958580      0.728160      0.640090     Biso  1.000000 C
   C991       1.0     0.958580      0.728160      0.359910     Biso  1.000000 C
   C992       1.0     0.041420      0.271840      0.640090     Biso  1.000000 C
   C993       1.0     0.432980      0.683890      0.158900     Biso  1.000000 C
   C994       1.0     0.567020      0.316110      0.841100     Biso  1.000000 C
   C995       1.0     0.567020      0.316110      0.158900     Biso  1.000000 C
   C996       1.0     0.432980      0.683890      0.841100     Biso  1.000000 C
   C997       1.0     0.067020      0.183890      0.841100     Biso  1.000000 C
   C998       1.0     0.932980      0.816110      0.158900     Biso  1.000000 C
   C999       1.0     0.932980      0.816110      0.841100     Biso  1.000000 C
   C1000      1.0     0.067020      0.183890      0.158900     Biso  1.000000 C
   C1001      1.0     0.932980      0.183890      0.658900     Biso  1.000000 C
   C1002      1.0     0.067020      0.816110      0.341100     Biso  1.000000 C
   C1003      1.0     0.067020      0.816110      0.658900     Biso  1.000000 C
   C1004      1.0     0.932980      0.183890      0.341100     Biso  1.000000 C
   C1005      1.0     0.567020      0.683890      0.341100     Biso  1.000000 C
   C1006      1.0     0.432980      0.316110      0.658900     Biso  1.000000 C
   C1007      1.0     0.432980      0.316110      0.341100     Biso  1.000000 C
   C1008      1.0     0.567020      0.683890      0.658900     Biso  1.000000 C
   C1009      1.0     0.414580      0.676860      0.139010     Biso  1.000000 C
   C1010      1.0     0.585420      0.323140      0.860990     Biso  1.000000 C
   C1011      1.0     0.585420      0.323140      0.139010     Biso  1.000000 C
   C1012      1.0     0.414580      0.676860      0.860990     Biso  1.000000 C
   C1013      1.0     0.085420      0.176860      0.860990     Biso  1.000000 C
   C1014      1.0     0.914580      0.823140      0.139010     Biso  1.000000 C
   C1015      1.0     0.914580      0.823140      0.860990     Biso  1.000000 C
   C1016      1.0     0.085420      0.176860      0.139010     Biso  1.000000 C
   C1017      1.0     0.914580      0.176860      0.639010     Biso  1.000000 C
   C1018      1.0     0.085420      0.823140      0.360990     Biso  1.000000 C
   C1019      1.0     0.085420      0.823140      0.639010     Biso  1.000000 C
   C1020      1.0     0.914580      0.176860      0.360990     Biso  1.000000 C
   C1021      1.0     0.585420      0.676860      0.360990     Biso  1.000000 C
   C1022      1.0     0.414580      0.323140      0.639010     Biso  1.000000 C
   C1023      1.0     0.414580      0.323140      0.360990     Biso  1.000000 C
   C1024      1.0     0.585420      0.676860      0.639010     Biso  1.000000 C
   C1025      1.0     0.388280      0.681330      0.130880     Biso  1.000000 C
   C1026      1.0     0.611720      0.318670      0.869120     Biso  1.000000 C
   C1027      1.0     0.611720      0.318670      0.130880     Biso  1.000000 C
   C1028      1.0     0.388280      0.681330      0.869120     Biso  1.000000 C
   C1029      1.0     0.111720      0.181330      0.869120     Biso  1.000000 C
   C1030      1.0     0.888280      0.818670      0.130880     Biso  1.000000 C
   C1031      1.0     0.888280      0.818670      0.869120     Biso  1.000000 C
   C1032      1.0     0.111720      0.181330      0.130880     Biso  1.000000 C
   C1033      1.0     0.888280      0.181330      0.630880     Biso  1.000000 C
   C1034      1.0     0.111720      0.818670      0.369120     Biso  1.000000 C
   C1035      1.0     0.111720      0.818670      0.630880     Biso  1.000000 C
   C1036      1.0     0.888280      0.181330      0.369120     Biso  1.000000 C
   C1037      1.0     0.611720      0.681330      0.369120     Biso  1.000000 C
   C1038      1.0     0.388280      0.318670      0.630880     Biso  1.000000 C
   C1039      1.0     0.388280      0.318670      0.369120     Biso  1.000000 C
   C1040      1.0     0.611720      0.681330      0.630880     Biso  1.000000 C
   C1041      1.0     0.380980      0.692870      0.142730     Biso  1.000000 C
   C1042      1.0     0.619020      0.307130      0.857270     Biso  1.000000 C
   C1043      1.0     0.619020      0.307130      0.142730     Biso  1.000000 C
   C1044      1.0     0.380980      0.692870      0.857270     Biso  1.000000 C
   C1045      1.0     0.119020      0.192870      0.857270     Biso  1.000000 C
   C1046      1.0     0.880980      0.807130      0.142730     Biso  1.000000 C
   C1047      1.0     0.880980      0.807130      0.857270     Biso  1.000000 C
   C1048      1.0     0.119020      0.192870      0.142730     Biso  1.000000 C
   C1049      1.0     0.880980      0.192870      0.642730     Biso  1.000000 C
   C1050      1.0     0.119020      0.807130      0.357270     Biso  1.000000 C
   C1051      1.0     0.119020      0.807130      0.642730     Biso  1.000000 C
   C1052      1.0     0.880980      0.192870      0.357270     Biso  1.000000 C
   C1053      1.0     0.619020      0.692870      0.357270     Biso  1.000000 C
   C1054      1.0     0.380980      0.307130      0.642730     Biso  1.000000 C
   C1055      1.0     0.380980      0.307130      0.357270     Biso  1.000000 C
   C1056      1.0     0.619020      0.692870      0.642730     Biso  1.000000 C
   C1057      1.0     0.399260      0.699900      0.162590     Biso  1.000000 C
   C1058      1.0     0.600740      0.300100      0.837410     Biso  1.000000 C
   C1059      1.0     0.600740      0.300100      0.162590     Biso  1.000000 C
   C1060      1.0     0.399260      0.699900      0.837410     Biso  1.000000 C
   C1061      1.0     0.100740      0.199900      0.837410     Biso  1.000000 C
   C1062      1.0     0.899260      0.800100      0.162590     Biso  1.000000 C
   C1063      1.0     0.899260      0.800100      0.837410     Biso  1.000000 C
   C1064      1.0     0.100740      0.199900      0.162590     Biso  1.000000 C
   C1065      1.0     0.899260      0.199900      0.662590     Biso  1.000000 C
   C1066      1.0     0.100740      0.800100      0.337410     Biso  1.000000 C
   C1067      1.0     0.100740      0.800100      0.662590     Biso  1.000000 C
   C1068      1.0     0.899260      0.199900      0.337410     Biso  1.000000 C
   C1069      1.0     0.600740      0.699900      0.337410     Biso  1.000000 C
   C1070      1.0     0.399260      0.300100      0.662590     Biso  1.000000 C
   C1071      1.0     0.399260      0.300100      0.337410     Biso  1.000000 C
   C1072      1.0     0.600740      0.699900      0.662590     Biso  1.000000 C
   C1073      1.0     0.500000      0.727350      0.250000     Biso  1.000000 C
   C1074      1.0     0.500000      0.272650      0.750000     Biso  1.000000 C
   C1075      1.0     0.500000      0.272650      0.250000     Biso  1.000000 C
   C1076      1.0     0.500000      0.727350      0.750000     Biso  1.000000 C
   C1077      1.0     0.000000      0.227350      0.750000     Biso  1.000000 C
   C1078      1.0     0.000000      0.772650      0.250000     Biso  1.000000 C
   C1079      1.0     0.000000      0.772650      0.750000     Biso  1.000000 C
   C1080      1.0     0.000000      0.227350      0.250000     Biso  1.000000 C
   C1081      1.0     0.000000      0.500000      0.250000     Biso  1.000000 C
   C1082      1.0     0.000000      0.500000      0.750000     Biso  1.000000 C
   C1083      1.0     0.500000      0.000000      0.750000     Biso  1.000000 C
   C1084      1.0     0.500000      0.000000      0.250000     Biso  1.000000 C
   N1         1.0     0.368250      0.674650      0.110740     Biso  1.000000 N
   N2         1.0     0.631750      0.325350      0.889260     Biso  1.000000 N
   N3         1.0     0.631750      0.325350      0.110740     Biso  1.000000 N
   N4         1.0     0.368250      0.674650      0.889260     Biso  1.000000 N
   N5         1.0     0.131750      0.174650      0.889260     Biso  1.000000 N
   N6         1.0     0.868250      0.825350      0.110740     Biso  1.000000 N
   N7         1.0     0.868250      0.825350      0.889260     Biso  1.000000 N
   N8         1.0     0.131750      0.174650      0.110740     Biso  1.000000 N
   N9         1.0     0.868250      0.174650      0.610740     Biso  1.000000 N
   N10        1.0     0.131750      0.825350      0.389260     Biso  1.000000 N
   N11        1.0     0.131750      0.825350      0.610740     Biso  1.000000 N
   N12        1.0     0.868250      0.174650      0.389260     Biso  1.000000 N
   N13        1.0     0.631750      0.674650      0.389260     Biso  1.000000 N
   N14        1.0     0.368250      0.325350      0.610740     Biso  1.000000 N
   N15        1.0     0.368250      0.325350      0.389260     Biso  1.000000 N
   N16        1.0     0.631750      0.674650      0.610740     Biso  1.000000 N
   N17        1.0     0.105300      0.562600      0.107620     Biso  1.000000 N
   N18        1.0     0.894700      0.437400      0.892380     Biso  1.000000 N
   N19        1.0     0.894700      0.437400      0.107620     Biso  1.000000 N
   N20        1.0     0.105300      0.562600      0.892380     Biso  1.000000 N
   N21        1.0     0.394700      0.062600      0.892380     Biso  1.000000 N
   N22        1.0     0.605300      0.937400      0.107620     Biso  1.000000 N
   N23        1.0     0.605300      0.937400      0.892380     Biso  1.000000 N
   N24        1.0     0.394700      0.062600      0.107620     Biso  1.000000 N
   N25        1.0     0.605300      0.062600      0.607620     Biso  1.000000 N
   N26        1.0     0.394700      0.937400      0.392380     Biso  1.000000 N
   N27        1.0     0.394700      0.937400      0.607620     Biso  1.000000 N
   N28        1.0     0.605300      0.062600      0.392380     Biso  1.000000 N
   N29        1.0     0.894700      0.562600      0.392380     Biso  1.000000 N
   N30        1.0     0.105300      0.437400      0.607620     Biso  1.000000 N
   N31        1.0     0.105300      0.437400      0.392380     Biso  1.000000 N
   N32        1.0     0.894700      0.562600      0.607620     Biso  1.000000 N
   N33        1.0     0.096770      0.708680      0.102120     Biso  1.000000 N
   N34        1.0     0.903230      0.291320      0.897880     Biso  1.000000 N
   N35        1.0     0.903230      0.291320      0.102120     Biso  1.000000 N
   N36        1.0     0.096770      0.708680      0.897880     Biso  1.000000 N
   N37        1.0     0.403230      0.208680      0.897880     Biso  1.000000 N
   N38        1.0     0.596770      0.791320      0.102120     Biso  1.000000 N
   N39        1.0     0.596770      0.791320      0.897880     Biso  1.000000 N
   N40        1.0     0.403230      0.208680      0.102120     Biso  1.000000 N
   N41        1.0     0.596770      0.208680      0.602120     Biso  1.000000 N
   N42        1.0     0.403230      0.791320      0.397880     Biso  1.000000 N
   N43        1.0     0.403230      0.791320      0.602120     Biso  1.000000 N
   N44        1.0     0.596770      0.208680      0.397880     Biso  1.000000 N
   N45        1.0     0.903230      0.708680      0.397880     Biso  1.000000 N
   N46        1.0     0.096770      0.291320      0.602120     Biso  1.000000 N
   N47        1.0     0.096770      0.291320      0.397880     Biso  1.000000 N
   N48        1.0     0.903230      0.708680      0.602120     Biso  1.000000 N
   F1         1.0     0.608460      0.288820      0.172650     Biso  1.000000 F
   F2         1.0     0.391540      0.711180      0.827350     Biso  1.000000 F
   F3         1.0     0.391540      0.711180      0.172650     Biso  1.000000 F
   F4         1.0     0.608460      0.288820      0.827350     Biso  1.000000 F
   F5         1.0     0.891540      0.788820      0.827350     Biso  1.000000 F
   F6         1.0     0.108460      0.211180      0.172650     Biso  1.000000 F
   F7         1.0     0.108460      0.211180      0.827350     Biso  1.000000 F
   F8         1.0     0.891540      0.788820      0.172650     Biso  1.000000 F
   F9         1.0     0.108460      0.788820      0.672650     Biso  1.000000 F
   F10        1.0     0.891540      0.211180      0.327350     Biso  1.000000 F
   F11        1.0     0.891540      0.211180      0.672650     Biso  1.000000 F
   F12        1.0     0.108460      0.788820      0.327350     Biso  1.000000 F
   F13        1.0     0.391540      0.288820      0.327350     Biso  1.000000 F
   F14        1.0     0.608460      0.711180      0.672650     Biso  1.000000 F
   F15        1.0     0.608460      0.711180      0.327350     Biso  1.000000 F
   F16        1.0     0.391540      0.288820      0.672650     Biso  1.000000 F
   F17        1.0     0.486380      0.228030      0.859920     Biso  1.000000 F
   F18        1.0     0.513620      0.771970      0.140080     Biso  1.000000 F
   F19        1.0     0.513620      0.771970      0.859920     Biso  1.000000 F
   F20        1.0     0.486380      0.228030      0.140080     Biso  1.000000 F
   F21        1.0     0.013620      0.728030      0.140080     Biso  1.000000 F
   F22        1.0     0.986380      0.271970      0.859920     Biso  1.000000 F
   F23        1.0     0.986380      0.271970      0.140080     Biso  1.000000 F
   F24        1.0     0.013620      0.728030      0.859920     Biso  1.000000 F
   F25        1.0     0.986380      0.728030      0.359920     Biso  1.000000 F
   F26        1.0     0.013620      0.271970      0.640080     Biso  1.000000 F
   F27        1.0     0.013620      0.271970      0.359920     Biso  1.000000 F
   F28        1.0     0.986380      0.728030      0.640080     Biso  1.000000 F
   F29        1.0     0.513620      0.228030      0.640080     Biso  1.000000 F
   F30        1.0     0.486380      0.771970      0.359920     Biso  1.000000 F
   F31        1.0     0.486380      0.771970      0.640080     Biso  1.000000 F
   F32        1.0     0.513620      0.228030      0.359920     Biso  1.000000 F
   F33        1.0     0.104240      0.475100      0.328010     Biso  1.000000 F
   F34        1.0     0.895760      0.524900      0.671990     Biso  1.000000 F
   F35        1.0     0.895760      0.524900      0.328010     Biso  1.000000 F
   F36        1.0     0.104240      0.475100      0.671990     Biso  1.000000 F
   F37        1.0     0.395760      0.975100      0.671990     Biso  1.000000 F
   F38        1.0     0.604240      0.024900      0.328010     Biso  1.000000 F
   F39        1.0     0.604240      0.024900      0.671990     Biso  1.000000 F
   F40        1.0     0.395760      0.975100      0.328010     Biso  1.000000 F
   F41        1.0     0.604240      0.975100      0.828010     Biso  1.000000 F
   F42        1.0     0.395760      0.024900      0.171990     Biso  1.000000 F
   F43        1.0     0.395760      0.024900      0.828010     Biso  1.000000 F
   F44        1.0     0.604240      0.975100      0.171990     Biso  1.000000 F
   F45        1.0     0.895760      0.475100      0.171990     Biso  1.000000 F
   F46        1.0     0.104240      0.524900      0.828010     Biso  1.000000 F
   F47        1.0     0.104240      0.524900      0.171990     Biso  1.000000 F
   F48        1.0     0.895760      0.475100      0.828010     Biso  1.000000 F
   H1         1.0     0.256140      0.639660      0.068590     Biso  1.000000 H
   H2         1.0     0.743860      0.360340      0.931410     Biso  1.000000 H
   H3         1.0     0.743860      0.360340      0.068590     Biso  1.000000 H
   H4         1.0     0.256140      0.639660      0.931410     Biso  1.000000 H
   H5         1.0     0.243860      0.139660      0.931410     Biso  1.000000 H
   H6         1.0     0.756140      0.860340      0.068590     Biso  1.000000 H
   H7         1.0     0.756140      0.860340      0.931410     Biso  1.000000 H
   H8         1.0     0.243860      0.139660      0.068590     Biso  1.000000 H
   H9         1.0     0.756140      0.139660      0.568590     Biso  1.000000 H
   H10        1.0     0.243860      0.860340      0.431410     Biso  1.000000 H
   H11        1.0     0.243860      0.860340      0.568590     Biso  1.000000 H
   H12        1.0     0.756140      0.139660      0.431410     Biso  1.000000 H
   H13        1.0     0.743860      0.639660      0.431410     Biso  1.000000 H
   H14        1.0     0.256140      0.360340      0.568590     Biso  1.000000 H
   H15        1.0     0.256140      0.360340      0.431410     Biso  1.000000 H
   H16        1.0     0.743860      0.639660      0.568590     Biso  1.000000 H
   H17        1.0     0.390020      0.658430      0.101620     Biso  1.000000 H
   H18        1.0     0.609980      0.341570      0.898380     Biso  1.000000 H
   H19        1.0     0.609980      0.341570      0.101620     Biso  1.000000 H
   H20        1.0     0.390020      0.658430      0.898380     Biso  1.000000 H
   H21        1.0     0.109980      0.158430      0.898380     Biso  1.000000 H
   H22        1.0     0.890020      0.841570      0.101620     Biso  1.000000 H
   H23        1.0     0.890020      0.841570      0.898380     Biso  1.000000 H
   H24        1.0     0.109980      0.158430      0.101620     Biso  1.000000 H
   H25        1.0     0.890020      0.158430      0.601620     Biso  1.000000 H
   H26        1.0     0.109980      0.841570      0.398380     Biso  1.000000 H
   H27        1.0     0.109980      0.841570      0.601620     Biso  1.000000 H
   H28        1.0     0.890020      0.158430      0.398380     Biso  1.000000 H
   H29        1.0     0.609980      0.658430      0.398380     Biso  1.000000 H
   H30        1.0     0.390020      0.341570      0.601620     Biso  1.000000 H
   H31        1.0     0.390020      0.341570      0.398380     Biso  1.000000 H
   H32        1.0     0.609980      0.658430      0.601620     Biso  1.000000 H
   H33        1.0     0.076780      0.576930      0.110980     Biso  1.000000 H
   H34        1.0     0.923220      0.423070      0.889020     Biso  1.000000 H
   H35        1.0     0.923220      0.423070      0.110980     Biso  1.000000 H
   H36        1.0     0.076780      0.576930      0.889020     Biso  1.000000 H
   H37        1.0     0.423220      0.076930      0.889020     Biso  1.000000 H
   H38        1.0     0.576780      0.923070      0.110980     Biso  1.000000 H
   H39        1.0     0.576780      0.923070      0.889020     Biso  1.000000 H
   H40        1.0     0.423220      0.076930      0.110980     Biso  1.000000 H
   H41        1.0     0.576780      0.076930      0.610980     Biso  1.000000 H
   H42        1.0     0.423220      0.923070      0.389020     Biso  1.000000 H
   H43        1.0     0.423220      0.923070      0.610980     Biso  1.000000 H
   H44        1.0     0.576780      0.076930      0.389020     Biso  1.000000 H
   H45        1.0     0.923220      0.576930      0.389020     Biso  1.000000 H
   H46        1.0     0.076780      0.423070      0.610980     Biso  1.000000 H
   H47        1.0     0.076780      0.423070      0.389020     Biso  1.000000 H
   H48        1.0     0.923220      0.576930      0.610980     Biso  1.000000 H
   H49        1.0     0.177660      0.615930      0.068610     Biso  1.000000 H
   H50        1.0     0.822340      0.384070      0.931390     Biso  1.000000 H
   H51        1.0     0.822340      0.384070      0.068610     Biso  1.000000 H
   H52        1.0     0.177660      0.615930      0.931390     Biso  1.000000 H
   H53        1.0     0.322340      0.115930      0.931390     Biso  1.000000 H
   H54        1.0     0.677660      0.884070      0.068610     Biso  1.000000 H
   H55        1.0     0.677660      0.884070      0.931390     Biso  1.000000 H
   H56        1.0     0.322340      0.115930      0.068610     Biso  1.000000 H
   H57        1.0     0.677660      0.115930      0.568610     Biso  1.000000 H
   H58        1.0     0.322340      0.884070      0.431390     Biso  1.000000 H
   H59        1.0     0.322340      0.884070      0.568610     Biso  1.000000 H
   H60        1.0     0.677660      0.115930      0.431390     Biso  1.000000 H
   H61        1.0     0.822340      0.615930      0.431390     Biso  1.000000 H
   H62        1.0     0.177660      0.384070      0.568610     Biso  1.000000 H
   H63        1.0     0.177660      0.384070      0.431390     Biso  1.000000 H
   H64        1.0     0.822340      0.615930      0.568610     Biso  1.000000 H
   H65        1.0     0.176170      0.656210      0.068660     Biso  1.000000 H
   H66        1.0     0.823830      0.343790      0.931340     Biso  1.000000 H
   H67        1.0     0.823830      0.343790      0.068660     Biso  1.000000 H
   H68        1.0     0.176170      0.656210      0.931340     Biso  1.000000 H
   H69        1.0     0.323830      0.156210      0.931340     Biso  1.000000 H
   H70        1.0     0.676170      0.843790      0.068660     Biso  1.000000 H
   H71        1.0     0.676170      0.843790      0.931340     Biso  1.000000 H
   H72        1.0     0.323830      0.156210      0.068660     Biso  1.000000 H
   H73        1.0     0.676170      0.156210      0.568660     Biso  1.000000 H
   H74        1.0     0.323830      0.843790      0.431340     Biso  1.000000 H
   H75        1.0     0.323830      0.843790      0.568660     Biso  1.000000 H
   H76        1.0     0.676170      0.156210      0.431340     Biso  1.000000 H
   H77        1.0     0.823830      0.656210      0.431340     Biso  1.000000 H
   H78        1.0     0.176170      0.343790      0.568660     Biso  1.000000 H
   H79        1.0     0.176170      0.343790      0.431340     Biso  1.000000 H
   H80        1.0     0.823830      0.656210      0.568660     Biso  1.000000 H
   H81        1.0     0.137750      0.714520      0.104990     Biso  1.000000 H
   H82        1.0     0.862250      0.285480      0.895010     Biso  1.000000 H
   H83        1.0     0.862250      0.285480      0.104990     Biso  1.000000 H
   H84        1.0     0.137750      0.714520      0.895010     Biso  1.000000 H
   H85        1.0     0.362250      0.214520      0.895010     Biso  1.000000 H
   H86        1.0     0.637750      0.785480      0.104990     Biso  1.000000 H
   H87        1.0     0.637750      0.785480      0.895010     Biso  1.000000 H
   H88        1.0     0.362250      0.214520      0.104990     Biso  1.000000 H
   H89        1.0     0.637750      0.214520      0.604990     Biso  1.000000 H
   H90        1.0     0.362250      0.785480      0.395010     Biso  1.000000 H
   H91        1.0     0.362250      0.785480      0.604990     Biso  1.000000 H
   H92        1.0     0.637750      0.214520      0.395010     Biso  1.000000 H
   H93        1.0     0.862250      0.714520      0.395010     Biso  1.000000 H
   H94        1.0     0.137750      0.285480      0.604990     Biso  1.000000 H
   H95        1.0     0.137750      0.285480      0.395010     Biso  1.000000 H
   H96        1.0     0.862250      0.714520      0.604990     Biso  1.000000 H
   H97        1.0     0.203800      0.636280      0.066500     Biso  1.000000 H
   H98        1.0     0.796200      0.363720      0.933500     Biso  1.000000 H
   H99        1.0     0.796200      0.363720      0.066500     Biso  1.000000 H
   H100       1.0     0.203800      0.636280      0.933500     Biso  1.000000 H
   H101       1.0     0.296200      0.136280      0.933500     Biso  1.000000 H
   H102       1.0     0.703800      0.863720      0.066500     Biso  1.000000 H
   H103       1.0     0.703800      0.863720      0.933500     Biso  1.000000 H
   H104       1.0     0.296200      0.136280      0.066500     Biso  1.000000 H
   H105       1.0     0.703800      0.136280      0.566500     Biso  1.000000 H
   H106       1.0     0.296200      0.863720      0.433500     Biso  1.000000 H
   H107       1.0     0.296200      0.863720      0.566500     Biso  1.000000 H
   H108       1.0     0.703800      0.136280      0.433500     Biso  1.000000 H
   H109       1.0     0.796200      0.636280      0.433500     Biso  1.000000 H
   H110       1.0     0.203800      0.363720      0.566500     Biso  1.000000 H
   H111       1.0     0.203800      0.363720      0.433500     Biso  1.000000 H
   H112       1.0     0.796200      0.636280      0.566500     Biso  1.000000 H
   H113       1.0     0.414770      0.096780      0.085300     Biso  1.000000 H
   H114       1.0     0.585230      0.903220      0.914700     Biso  1.000000 H
   H115       1.0     0.585230      0.903220      0.085300     Biso  1.000000 H
   H116       1.0     0.414770      0.096780      0.914700     Biso  1.000000 H
   H117       1.0     0.085230      0.596780      0.914700     Biso  1.000000 H
   H118       1.0     0.914770      0.403220      0.085300     Biso  1.000000 H
   H119       1.0     0.914770      0.403220      0.914700     Biso  1.000000 H
   H120       1.0     0.085230      0.596780      0.085300     Biso  1.000000 H
   H121       1.0     0.914770      0.596780      0.585300     Biso  1.000000 H
   H122       1.0     0.085230      0.403220      0.414700     Biso  1.000000 H
   H123       1.0     0.085230      0.403220      0.585300     Biso  1.000000 H
   H124       1.0     0.914770      0.596780      0.414700     Biso  1.000000 H
   H125       1.0     0.585230      0.096780      0.414700     Biso  1.000000 H
   H126       1.0     0.414770      0.903220      0.585300     Biso  1.000000 H
   H127       1.0     0.414770      0.903220      0.414700     Biso  1.000000 H
   H128       1.0     0.585230      0.096780      0.585300     Biso  1.000000 H
   H129       1.0     0.385660      0.111490      0.049620     Biso  1.000000 H
   H130       1.0     0.614340      0.888510      0.950380     Biso  1.000000 H
   H131       1.0     0.614340      0.888510      0.049620     Biso  1.000000 H
   H132       1.0     0.385660      0.111490      0.950380     Biso  1.000000 H
   H133       1.0     0.114340      0.611490      0.950380     Biso  1.000000 H
   H134       1.0     0.885660      0.388510      0.049620     Biso  1.000000 H
   H135       1.0     0.885660      0.388510      0.950380     Biso  1.000000 H
   H136       1.0     0.114340      0.611490      0.049620     Biso  1.000000 H
   H137       1.0     0.885660      0.611490      0.549620     Biso  1.000000 H
   H138       1.0     0.114340      0.388510      0.450380     Biso  1.000000 H
   H139       1.0     0.114340      0.388510      0.549620     Biso  1.000000 H
   H140       1.0     0.885660      0.611490      0.450380     Biso  1.000000 H
   H141       1.0     0.614340      0.111490      0.450380     Biso  1.000000 H
   H142       1.0     0.385660      0.888510      0.549620     Biso  1.000000 H
   H143       1.0     0.385660      0.888510      0.450380     Biso  1.000000 H
   H144       1.0     0.614340      0.111490      0.549620     Biso  1.000000 H
   H145       1.0     0.323500      0.083280      0.033650     Biso  1.000000 H
   H146       1.0     0.676500      0.916720      0.966350     Biso  1.000000 H
   H147       1.0     0.676500      0.916720      0.033650     Biso  1.000000 H
   H148       1.0     0.323500      0.083280      0.966350     Biso  1.000000 H
   H149       1.0     0.176500      0.583280      0.966350     Biso  1.000000 H
   H150       1.0     0.823500      0.416720      0.033650     Biso  1.000000 H
   H151       1.0     0.823500      0.416720      0.966350     Biso  1.000000 H
   H152       1.0     0.176500      0.583280      0.033650     Biso  1.000000 H
   H153       1.0     0.823500      0.583280      0.533650     Biso  1.000000 H
   H154       1.0     0.176500      0.416720      0.466350     Biso  1.000000 H
   H155       1.0     0.176500      0.416720      0.533650     Biso  1.000000 H
   H156       1.0     0.823500      0.583280      0.466350     Biso  1.000000 H
   H157       1.0     0.676500      0.083280      0.466350     Biso  1.000000 H
   H158       1.0     0.323500      0.916720      0.533650     Biso  1.000000 H
   H159       1.0     0.323500      0.916720      0.466350     Biso  1.000000 H
   H160       1.0     0.676500      0.083280      0.533650     Biso  1.000000 H
   H161       1.0     0.352550      0.068530      0.069420     Biso  1.000000 H
   H162       1.0     0.647450      0.931470      0.930580     Biso  1.000000 H
   H163       1.0     0.647450      0.931470      0.069420     Biso  1.000000 H
   H164       1.0     0.352550      0.068530      0.930580     Biso  1.000000 H
   H165       1.0     0.147450      0.568530      0.930580     Biso  1.000000 H
   H166       1.0     0.852550      0.431470      0.069420     Biso  1.000000 H
   H167       1.0     0.852550      0.431470      0.930580     Biso  1.000000 H
   H168       1.0     0.147450      0.568530      0.069420     Biso  1.000000 H
   H169       1.0     0.852550      0.568530      0.569420     Biso  1.000000 H
   H170       1.0     0.147450      0.431470      0.430580     Biso  1.000000 H
   H171       1.0     0.147450      0.431470      0.569420     Biso  1.000000 H
   H172       1.0     0.852550      0.568530      0.430580     Biso  1.000000 H
   H173       1.0     0.647450      0.068530      0.430580     Biso  1.000000 H
   H174       1.0     0.352550      0.931470      0.569420     Biso  1.000000 H
   H175       1.0     0.352550      0.931470      0.430580     Biso  1.000000 H
   H176       1.0     0.647450      0.068530      0.569420     Biso  1.000000 H
   H177       1.0     0.130940      0.141370      0.067750     Biso  1.000000 H
   H178       1.0     0.869060      0.858630      0.932250     Biso  1.000000 H
   H179       1.0     0.869060      0.858630      0.067750     Biso  1.000000 H
   H180       1.0     0.130940      0.141370      0.932250     Biso  1.000000 H
   H181       1.0     0.369060      0.641370      0.932250     Biso  1.000000 H
   H182       1.0     0.630940      0.358630      0.067750     Biso  1.000000 H
   H183       1.0     0.630940      0.358630      0.932250     Biso  1.000000 H
   H184       1.0     0.369060      0.641370      0.067750     Biso  1.000000 H
   H185       1.0     0.630940      0.641370      0.567750     Biso  1.000000 H
   H186       1.0     0.369060      0.358630      0.432250     Biso  1.000000 H
   H187       1.0     0.369060      0.358630      0.567750     Biso  1.000000 H
   H188       1.0     0.630940      0.641370      0.432250     Biso  1.000000 H
   H189       1.0     0.869060      0.141370      0.432250     Biso  1.000000 H
   H190       1.0     0.130940      0.858630      0.567750     Biso  1.000000 H
   H191       1.0     0.130940      0.858630      0.432250     Biso  1.000000 H
   H192       1.0     0.869060      0.141370      0.567750     Biso  1.000000 H
   H193       1.0     0.170640      0.132030      0.033470     Biso  1.000000 H
   H194       1.0     0.829360      0.867970      0.966530     Biso  1.000000 H
   H195       1.0     0.829360      0.867970      0.033470     Biso  1.000000 H
   H196       1.0     0.170640      0.132030      0.966530     Biso  1.000000 H
   H197       1.0     0.329360      0.632030      0.966530     Biso  1.000000 H
   H198       1.0     0.670640      0.367970      0.033470     Biso  1.000000 H
   H199       1.0     0.670640      0.367970      0.966530     Biso  1.000000 H
   H200       1.0     0.329360      0.632030      0.033470     Biso  1.000000 H
   H201       1.0     0.670640      0.632030      0.533470     Biso  1.000000 H
   H202       1.0     0.329360      0.367970      0.466530     Biso  1.000000 H
   H203       1.0     0.329360      0.367970      0.533470     Biso  1.000000 H
   H204       1.0     0.670640      0.632030      0.466530     Biso  1.000000 H
   H205       1.0     0.829360      0.132030      0.466530     Biso  1.000000 H
   H206       1.0     0.170640      0.867970      0.533470     Biso  1.000000 H
   H207       1.0     0.170640      0.867970      0.466530     Biso  1.000000 H
   H208       1.0     0.829360      0.132030      0.533470     Biso  1.000000 H
   H209       1.0     0.218810      0.165120      0.049600     Biso  1.000000 H
   H210       1.0     0.781190      0.834880      0.950400     Biso  1.000000 H
   H211       1.0     0.781190      0.834880      0.049600     Biso  1.000000 H
   H212       1.0     0.218810      0.165120      0.950400     Biso  1.000000 H
   H213       1.0     0.281190      0.665120      0.950400     Biso  1.000000 H
   H214       1.0     0.718810      0.334880      0.049600     Biso  1.000000 H
   H215       1.0     0.718810      0.334880      0.950400     Biso  1.000000 H
   H216       1.0     0.281190      0.665120      0.049600     Biso  1.000000 H
   H217       1.0     0.718810      0.665120      0.549600     Biso  1.000000 H
   H218       1.0     0.281190      0.334880      0.450400     Biso  1.000000 H
   H219       1.0     0.281190      0.334880      0.549600     Biso  1.000000 H
   H220       1.0     0.718810      0.665120      0.450400     Biso  1.000000 H
   H221       1.0     0.781190      0.165120      0.450400     Biso  1.000000 H
   H222       1.0     0.218810      0.834880      0.549600     Biso  1.000000 H
   H223       1.0     0.218810      0.834880      0.450400     Biso  1.000000 H
   H224       1.0     0.781190      0.165120      0.549600     Biso  1.000000 H
   H225       1.0     0.179260      0.174470      0.083860     Biso  1.000000 H
   H226       1.0     0.820740      0.825530      0.916140     Biso  1.000000 H
   H227       1.0     0.820740      0.825530      0.083860     Biso  1.000000 H
   H228       1.0     0.179260      0.174470      0.916140     Biso  1.000000 H
   H229       1.0     0.320740      0.674470      0.916140     Biso  1.000000 H
   H230       1.0     0.679260      0.325530      0.083860     Biso  1.000000 H
   H231       1.0     0.679260      0.325530      0.916140     Biso  1.000000 H
   H232       1.0     0.320740      0.674470      0.083860     Biso  1.000000 H
   H233       1.0     0.679260      0.674470      0.583860     Biso  1.000000 H
   H234       1.0     0.320740      0.325530      0.416140     Biso  1.000000 H
   H235       1.0     0.320740      0.325530      0.583860     Biso  1.000000 H
   H236       1.0     0.679260      0.674470      0.416140     Biso  1.000000 H
   H237       1.0     0.820740      0.174470      0.416140     Biso  1.000000 H
   H238       1.0     0.179260      0.825530      0.583860     Biso  1.000000 H
   H239       1.0     0.179260      0.825530      0.416140     Biso  1.000000 H
   H240       1.0     0.820740      0.174470      0.583860     Biso  1.000000 H
   H241       1.0     0.988000      0.212920      0.191650     Biso  1.000000 H
   H242       1.0     0.012000      0.787080      0.808350     Biso  1.000000 H
   H243       1.0     0.012000      0.787080      0.191650     Biso  1.000000 H
   H244       1.0     0.988000      0.212920      0.808350     Biso  1.000000 H
   H245       1.0     0.512000      0.712920      0.808350     Biso  1.000000 H
   H246       1.0     0.488000      0.287080      0.191650     Biso  1.000000 H
   H247       1.0     0.488000      0.287080      0.808350     Biso  1.000000 H
   H248       1.0     0.512000      0.712920      0.191650     Biso  1.000000 H
   H249       1.0     0.488000      0.712920      0.691650     Biso  1.000000 H
   H250       1.0     0.512000      0.287080      0.308350     Biso  1.000000 H
   H251       1.0     0.512000      0.287080      0.691650     Biso  1.000000 H
   H252       1.0     0.488000      0.712920      0.308350     Biso  1.000000 H
   H253       1.0     0.012000      0.212920      0.308350     Biso  1.000000 H
   H254       1.0     0.988000      0.787080      0.691650     Biso  1.000000 H
   H255       1.0     0.988000      0.787080      0.308350     Biso  1.000000 H
   H256       1.0     0.012000      0.212920      0.691650     Biso  1.000000 H
   H257       1.0     0.020120      0.199230      0.156780     Biso  1.000000 H
   H258       1.0     0.979880      0.800770      0.843220     Biso  1.000000 H
   H259       1.0     0.979880      0.800770      0.156780     Biso  1.000000 H
   H260       1.0     0.020120      0.199230      0.843220     Biso  1.000000 H
   H261       1.0     0.479880      0.699230      0.843220     Biso  1.000000 H
   H262       1.0     0.520120      0.300770      0.156780     Biso  1.000000 H
   H263       1.0     0.520120      0.300770      0.843220     Biso  1.000000 H
   H264       1.0     0.479880      0.699230      0.156780     Biso  1.000000 H
   H265       1.0     0.520120      0.699230      0.656780     Biso  1.000000 H
   H266       1.0     0.479880      0.300770      0.343220     Biso  1.000000 H
   H267       1.0     0.479880      0.300770      0.656780     Biso  1.000000 H
   H268       1.0     0.520120      0.699230      0.343220     Biso  1.000000 H
   H269       1.0     0.979880      0.199230      0.343220     Biso  1.000000 H
   H270       1.0     0.020120      0.800770      0.656780     Biso  1.000000 H
   H271       1.0     0.020120      0.800770      0.343220     Biso  1.000000 H
   H272       1.0     0.979880      0.199230      0.656780     Biso  1.000000 H
   H273       1.0     0.085670      0.207080      0.234270     Biso  1.000000 H
   H274       1.0     0.914330      0.792920      0.765730     Biso  1.000000 H
   H275       1.0     0.914330      0.792920      0.234270     Biso  1.000000 H
   H276       1.0     0.085670      0.207080      0.765730     Biso  1.000000 H
   H277       1.0     0.414330      0.707080      0.765730     Biso  1.000000 H
   H278       1.0     0.585670      0.292920      0.234270     Biso  1.000000 H
   H279       1.0     0.585670      0.292920      0.765730     Biso  1.000000 H
   H280       1.0     0.414330      0.707080      0.234270     Biso  1.000000 H
   H281       1.0     0.585670      0.707080      0.734270     Biso  1.000000 H
   H282       1.0     0.414330      0.292920      0.265730     Biso  1.000000 H
   H283       1.0     0.414330      0.292920      0.734270     Biso  1.000000 H
   H284       1.0     0.585670      0.707080      0.265730     Biso  1.000000 H
   H285       1.0     0.914330      0.207080      0.265730     Biso  1.000000 H
   H286       1.0     0.085670      0.792920      0.734270     Biso  1.000000 H
   H287       1.0     0.085670      0.792920      0.265730     Biso  1.000000 H
   H288       1.0     0.914330      0.207080      0.734270     Biso  1.000000 H
   H289       1.0     0.053620      0.220710      0.268750     Biso  1.000000 H
   H290       1.0     0.946380      0.779290      0.731250     Biso  1.000000 H
   H291       1.0     0.946380      0.779290      0.268750     Biso  1.000000 H
   H292       1.0     0.053620      0.220710      0.731250     Biso  1.000000 H
   H293       1.0     0.446380      0.720710      0.731250     Biso  1.000000 H
   H294       1.0     0.553620      0.279290      0.268750     Biso  1.000000 H
   H295       1.0     0.553620      0.279290      0.731250     Biso  1.000000 H
   H296       1.0     0.446380      0.720710      0.268750     Biso  1.000000 H
   H297       1.0     0.553620      0.720710      0.768750     Biso  1.000000 H
   H298       1.0     0.446380      0.279290      0.231250     Biso  1.000000 H
   H299       1.0     0.446380      0.279290      0.768750     Biso  1.000000 H
   H300       1.0     0.553620      0.720710      0.231250     Biso  1.000000 H
   H301       1.0     0.946380      0.220710      0.231250     Biso  1.000000 H
   H302       1.0     0.053620      0.779290      0.768750     Biso  1.000000 H
   H303       1.0     0.053620      0.779290      0.231250     Biso  1.000000 H
   H304       1.0     0.946380      0.220710      0.768750     Biso  1.000000 H
   H305       1.0     0.985860      0.510550      0.184510     Biso  1.000000 H
   H306       1.0     0.014140      0.489450      0.815490     Biso  1.000000 H
   H307       1.0     0.014140      0.489450      0.184510     Biso  1.000000 H
   H308       1.0     0.985860      0.510550      0.815490     Biso  1.000000 H
   H309       1.0     0.514140      0.010550      0.815490     Biso  1.000000 H
   H310       1.0     0.485860      0.989450      0.184510     Biso  1.000000 H
   H311       1.0     0.485860      0.989450      0.815490     Biso  1.000000 H
   H312       1.0     0.514140      0.010550      0.184510     Biso  1.000000 H
   H313       1.0     0.485860      0.010550      0.684510     Biso  1.000000 H
   H314       1.0     0.514140      0.989450      0.315490     Biso  1.000000 H
   H315       1.0     0.514140      0.989450      0.684510     Biso  1.000000 H
   H316       1.0     0.485860      0.010550      0.315490     Biso  1.000000 H
   H317       1.0     0.014140      0.510550      0.315490     Biso  1.000000 H
   H318       1.0     0.985860      0.489450      0.684510     Biso  1.000000 H
   H319       1.0     0.985860      0.489450      0.315490     Biso  1.000000 H
   H320       1.0     0.014140      0.510550      0.684510     Biso  1.000000 H
   H321       1.0     0.012550      0.525690      0.148740     Biso  1.000000 H
   H322       1.0     0.987450      0.474310      0.851260     Biso  1.000000 H
   H323       1.0     0.987450      0.474310      0.148740     Biso  1.000000 H
   H324       1.0     0.012550      0.525690      0.851260     Biso  1.000000 H
   H325       1.0     0.487450      0.025690      0.851260     Biso  1.000000 H
   H326       1.0     0.512550      0.974310      0.148740     Biso  1.000000 H
   H327       1.0     0.512550      0.974310      0.851260     Biso  1.000000 H
   H328       1.0     0.487450      0.025690      0.148740     Biso  1.000000 H
   H329       1.0     0.512550      0.025690      0.648740     Biso  1.000000 H
   H330       1.0     0.487450      0.974310      0.351260     Biso  1.000000 H
   H331       1.0     0.487450      0.974310      0.648740     Biso  1.000000 H
   H332       1.0     0.512550      0.025690      0.351260     Biso  1.000000 H
   H333       1.0     0.987450      0.525690      0.351260     Biso  1.000000 H
   H334       1.0     0.012550      0.474310      0.648740     Biso  1.000000 H
   H335       1.0     0.012550      0.474310      0.351260     Biso  1.000000 H
   H336       1.0     0.987450      0.525690      0.648740     Biso  1.000000 H
   H337       1.0     0.077230      0.525640      0.231120     Biso  1.000000 H
   H338       1.0     0.922770      0.474360      0.768880     Biso  1.000000 H
   H339       1.0     0.922770      0.474360      0.231120     Biso  1.000000 H
   H340       1.0     0.077230      0.525640      0.768880     Biso  1.000000 H
   H341       1.0     0.422770      0.025640      0.768880     Biso  1.000000 H
   H342       1.0     0.577230      0.974360      0.231120     Biso  1.000000 H
   H343       1.0     0.577230      0.974360      0.768880     Biso  1.000000 H
   H344       1.0     0.422770      0.025640      0.231120     Biso  1.000000 H
   H345       1.0     0.577230      0.025640      0.731120     Biso  1.000000 H
   H346       1.0     0.422770      0.974360      0.268880     Biso  1.000000 H
   H347       1.0     0.422770      0.974360      0.731120     Biso  1.000000 H
   H348       1.0     0.577230      0.025640      0.268880     Biso  1.000000 H
   H349       1.0     0.922770      0.525640      0.268880     Biso  1.000000 H
   H350       1.0     0.077230      0.474360      0.731120     Biso  1.000000 H
   H351       1.0     0.077230      0.474360      0.268880     Biso  1.000000 H
   H352       1.0     0.922770      0.525640      0.731120     Biso  1.000000 H
   H353       1.0     0.050640      0.510460      0.267090     Biso  1.000000 H
   H354       1.0     0.949360      0.489540      0.732910     Biso  1.000000 H
   H355       1.0     0.949360      0.489540      0.267090     Biso  1.000000 H
   H356       1.0     0.050640      0.510460      0.732910     Biso  1.000000 H
   H357       1.0     0.449360      0.010460      0.732910     Biso  1.000000 H
   H358       1.0     0.550640      0.989540      0.267090     Biso  1.000000 H
   H359       1.0     0.550640      0.989540      0.732910     Biso  1.000000 H
   H360       1.0     0.449360      0.010460      0.267090     Biso  1.000000 H
   H361       1.0     0.550640      0.010460      0.767090     Biso  1.000000 H
   H362       1.0     0.449360      0.989540      0.232910     Biso  1.000000 H
   H363       1.0     0.449360      0.989540      0.767090     Biso  1.000000 H
   H364       1.0     0.550640      0.010460      0.232910     Biso  1.000000 H
   H365       1.0     0.949360      0.510460      0.232910     Biso  1.000000 H
   H366       1.0     0.050640      0.489540      0.767090     Biso  1.000000 H
   H367       1.0     0.050640      0.489540      0.232910     Biso  1.000000 H
   H368       1.0     0.949360      0.510460      0.767090     Biso  1.000000 H
   H369       1.0     0.126840      0.542650      0.135360     Biso  1.000000 H
   H370       1.0     0.873160      0.457350      0.864640     Biso  1.000000 H
   H371       1.0     0.873160      0.457350      0.135360     Biso  1.000000 H
   H372       1.0     0.126840      0.542650      0.864640     Biso  1.000000 H
   H373       1.0     0.373160      0.042650      0.864640     Biso  1.000000 H
   H374       1.0     0.626840      0.957350      0.135360     Biso  1.000000 H
   H375       1.0     0.626840      0.957350      0.864640     Biso  1.000000 H
   H376       1.0     0.373160      0.042650      0.135360     Biso  1.000000 H
   H377       1.0     0.626840      0.042650      0.635360     Biso  1.000000 H
   H378       1.0     0.373160      0.957350      0.364640     Biso  1.000000 H
   H379       1.0     0.373160      0.957350      0.635360     Biso  1.000000 H
   H380       1.0     0.626840      0.042650      0.364640     Biso  1.000000 H
   H381       1.0     0.873160      0.542650      0.364640     Biso  1.000000 H
   H382       1.0     0.126840      0.457350      0.635360     Biso  1.000000 H
   H383       1.0     0.126840      0.457350      0.364640     Biso  1.000000 H
   H384       1.0     0.873160      0.542650      0.635360     Biso  1.000000 H
   H385       1.0     0.049900      0.562830      0.122670     Biso  1.000000 H
   H386       1.0     0.950100      0.437170      0.877330     Biso  1.000000 H
   H387       1.0     0.950100      0.437170      0.122670     Biso  1.000000 H
   H388       1.0     0.049900      0.562830      0.877330     Biso  1.000000 H
   H389       1.0     0.450100      0.062830      0.877330     Biso  1.000000 H
   H390       1.0     0.549900      0.937170      0.122670     Biso  1.000000 H
   H391       1.0     0.549900      0.937170      0.877330     Biso  1.000000 H
   H392       1.0     0.450100      0.062830      0.122670     Biso  1.000000 H
   H393       1.0     0.549900      0.062830      0.622670     Biso  1.000000 H
   H394       1.0     0.450100      0.937170      0.377330     Biso  1.000000 H
   H395       1.0     0.450100      0.937170      0.622670     Biso  1.000000 H
   H396       1.0     0.549900      0.062830      0.377330     Biso  1.000000 H
   H397       1.0     0.950100      0.562830      0.377330     Biso  1.000000 H
   H398       1.0     0.049900      0.437170      0.622670     Biso  1.000000 H
   H399       1.0     0.049900      0.437170      0.377330     Biso  1.000000 H
   H400       1.0     0.950100      0.562830      0.622670     Biso  1.000000 H
   H401       1.0     0.024820      0.546860      0.157940     Biso  1.000000 H
   H402       1.0     0.975180      0.453140      0.842060     Biso  1.000000 H
   H403       1.0     0.975180      0.453140      0.157940     Biso  1.000000 H
   H404       1.0     0.024820      0.546860      0.842060     Biso  1.000000 H
   H405       1.0     0.475180      0.046860      0.842060     Biso  1.000000 H
   H406       1.0     0.524820      0.953140      0.157940     Biso  1.000000 H
   H407       1.0     0.524820      0.953140      0.842060     Biso  1.000000 H
   H408       1.0     0.475180      0.046860      0.157940     Biso  1.000000 H
   H409       1.0     0.524820      0.046860      0.657940     Biso  1.000000 H
   H410       1.0     0.475180      0.953140      0.342060     Biso  1.000000 H
   H411       1.0     0.475180      0.953140      0.657940     Biso  1.000000 H
   H412       1.0     0.524820      0.046860      0.342060     Biso  1.000000 H
   H413       1.0     0.975180      0.546860      0.342060     Biso  1.000000 H
   H414       1.0     0.024820      0.453140      0.657940     Biso  1.000000 H
   H415       1.0     0.024820      0.453140      0.342060     Biso  1.000000 H
   H416       1.0     0.975180      0.546860      0.657940     Biso  1.000000 H
   H417       1.0     0.824200      0.297470      0.080220     Biso  1.000000 H
   H418       1.0     0.175800      0.702530      0.919780     Biso  1.000000 H
   H419       1.0     0.175800      0.702530      0.080220     Biso  1.000000 H
   H420       1.0     0.824200      0.297470      0.919780     Biso  1.000000 H
   H421       1.0     0.675800      0.797470      0.919780     Biso  1.000000 H
   H422       1.0     0.324200      0.202530      0.080220     Biso  1.000000 H
   H423       1.0     0.324200      0.202530      0.919780     Biso  1.000000 H
   H424       1.0     0.675800      0.797470      0.080220     Biso  1.000000 H
   H425       1.0     0.324200      0.797470      0.580220     Biso  1.000000 H
   H426       1.0     0.675800      0.202530      0.419780     Biso  1.000000 H
   H427       1.0     0.675800      0.202530      0.580220     Biso  1.000000 H
   H428       1.0     0.324200      0.797470      0.419780     Biso  1.000000 H
   H429       1.0     0.175800      0.297470      0.419780     Biso  1.000000 H
   H430       1.0     0.824200      0.702530      0.580220     Biso  1.000000 H
   H431       1.0     0.824200      0.702530      0.419780     Biso  1.000000 H
   H432       1.0     0.175800      0.297470      0.580220     Biso  1.000000 H
   H433       1.0     0.805780      0.315790      0.047190     Biso  1.000000 H
   H434       1.0     0.194220      0.684210      0.952810     Biso  1.000000 H
   H435       1.0     0.194220      0.684210      0.047190     Biso  1.000000 H
   H436       1.0     0.805780      0.315790      0.952810     Biso  1.000000 H
   H437       1.0     0.694220      0.815790      0.952810     Biso  1.000000 H
   H438       1.0     0.305780      0.184210      0.047190     Biso  1.000000 H
   H439       1.0     0.305780      0.184210      0.952810     Biso  1.000000 H
   H440       1.0     0.694220      0.815790      0.047190     Biso  1.000000 H
   H441       1.0     0.305780      0.815790      0.547190     Biso  1.000000 H
   H442       1.0     0.694220      0.184210      0.452810     Biso  1.000000 H
   H443       1.0     0.694220      0.184210      0.547190     Biso  1.000000 H
   H444       1.0     0.305780      0.815790      0.452810     Biso  1.000000 H
   H445       1.0     0.194220      0.315790      0.452810     Biso  1.000000 H
   H446       1.0     0.805780      0.684210      0.547190     Biso  1.000000 H
   H447       1.0     0.805780      0.684210      0.452810     Biso  1.000000 H
   H448       1.0     0.194220      0.315790      0.547190     Biso  1.000000 H
   H449       1.0     0.889550      0.329800      0.035350     Biso  1.000000 H
   H450       1.0     0.110450      0.670200      0.964650     Biso  1.000000 H
   H451       1.0     0.110450      0.670200      0.035350     Biso  1.000000 H
   H452       1.0     0.889550      0.329800      0.964650     Biso  1.000000 H
   H453       1.0     0.610450      0.829800      0.964650     Biso  1.000000 H
   H454       1.0     0.389550      0.170200      0.035350     Biso  1.000000 H
   H455       1.0     0.389550      0.170200      0.964650     Biso  1.000000 H
   H456       1.0     0.610450      0.829800      0.035350     Biso  1.000000 H
   H457       1.0     0.389550      0.829800      0.535350     Biso  1.000000 H
   H458       1.0     0.610450      0.170200      0.464650     Biso  1.000000 H
   H459       1.0     0.610450      0.170200      0.535350     Biso  1.000000 H
   H460       1.0     0.389550      0.829800      0.464650     Biso  1.000000 H
   H461       1.0     0.110450      0.329800      0.464650     Biso  1.000000 H
   H462       1.0     0.889550      0.670200      0.535350     Biso  1.000000 H
   H463       1.0     0.889550      0.670200      0.464650     Biso  1.000000 H
   H464       1.0     0.110450      0.329800      0.535350     Biso  1.000000 H
   H465       1.0     0.908050      0.311500      0.068500     Biso  1.000000 H
   H466       1.0     0.091950      0.688500      0.931500     Biso  1.000000 H
   H467       1.0     0.091950      0.688500      0.068500     Biso  1.000000 H
   H468       1.0     0.908050      0.311500      0.931500     Biso  1.000000 H
   H469       1.0     0.591950      0.811500      0.931500     Biso  1.000000 H
   H470       1.0     0.408050      0.188500      0.068500     Biso  1.000000 H
   H471       1.0     0.408050      0.188500      0.931500     Biso  1.000000 H
   H472       1.0     0.591950      0.811500      0.068500     Biso  1.000000 H
   H473       1.0     0.408050      0.811500      0.568500     Biso  1.000000 H
   H474       1.0     0.591950      0.188500      0.431500     Biso  1.000000 H
   H475       1.0     0.591950      0.188500      0.568500     Biso  1.000000 H
   H476       1.0     0.408050      0.811500      0.431500     Biso  1.000000 H
   H477       1.0     0.091950      0.311500      0.431500     Biso  1.000000 H
   H478       1.0     0.908050      0.688500      0.568500     Biso  1.000000 H
   H479       1.0     0.908050      0.688500      0.431500     Biso  1.000000 H
   H480       1.0     0.091950      0.311500      0.568500     Biso  1.000000 H
   H481       1.0     0.012480      0.233770      0.178350     Biso  1.000000 H
   H482       1.0     0.987520      0.766230      0.821650     Biso  1.000000 H
   H483       1.0     0.987520      0.766230      0.178350     Biso  1.000000 H
   H484       1.0     0.012480      0.233770      0.821650     Biso  1.000000 H
   H485       1.0     0.487520      0.733770      0.821650     Biso  1.000000 H
   H486       1.0     0.512480      0.266230      0.178350     Biso  1.000000 H
   H487       1.0     0.512480      0.266230      0.821650     Biso  1.000000 H
   H488       1.0     0.487520      0.733770      0.178350     Biso  1.000000 H
   H489       1.0     0.512480      0.733770      0.678350     Biso  1.000000 H
   H490       1.0     0.487520      0.266230      0.321650     Biso  1.000000 H
   H491       1.0     0.487520      0.266230      0.678350     Biso  1.000000 H
   H492       1.0     0.512480      0.733770      0.321650     Biso  1.000000 H
   H493       1.0     0.987520      0.233770      0.321650     Biso  1.000000 H
   H494       1.0     0.012480      0.766230      0.678350     Biso  1.000000 H
   H495       1.0     0.012480      0.766230      0.321650     Biso  1.000000 H
   H496       1.0     0.987520      0.233770      0.678350     Biso  1.000000 H
   H497       1.0     0.987830      0.249220      0.139670     Biso  1.000000 H
   H498       1.0     0.012170      0.750780      0.860330     Biso  1.000000 H
   H499       1.0     0.012170      0.750780      0.139670     Biso  1.000000 H
   H500       1.0     0.987830      0.249220      0.860330     Biso  1.000000 H
   H501       1.0     0.512170      0.749220      0.860330     Biso  1.000000 H
   H502       1.0     0.487830      0.250780      0.139670     Biso  1.000000 H
   H503       1.0     0.487830      0.250780      0.860330     Biso  1.000000 H
   H504       1.0     0.512170      0.749220      0.139670     Biso  1.000000 H
   H505       1.0     0.487830      0.749220      0.639670     Biso  1.000000 H
   H506       1.0     0.512170      0.250780      0.360330     Biso  1.000000 H
   H507       1.0     0.512170      0.250780      0.639670     Biso  1.000000 H
   H508       1.0     0.487830      0.749220      0.360330     Biso  1.000000 H
   H509       1.0     0.012170      0.249220      0.360330     Biso  1.000000 H
   H510       1.0     0.987830      0.750780      0.639670     Biso  1.000000 H
   H511       1.0     0.987830      0.750780      0.360330     Biso  1.000000 H
   H512       1.0     0.012170      0.249220      0.639670     Biso  1.000000 H
   H513       1.0     0.931350      0.256890      0.228530     Biso  1.000000 H
   H514       1.0     0.068650      0.743110      0.771470     Biso  1.000000 H
   H515       1.0     0.068650      0.743110      0.228530     Biso  1.000000 H
   H516       1.0     0.931350      0.256890      0.771470     Biso  1.000000 H
   H517       1.0     0.568650      0.756890      0.771470     Biso  1.000000 H
   H518       1.0     0.431350      0.243110      0.228530     Biso  1.000000 H
   H519       1.0     0.431350      0.243110      0.771470     Biso  1.000000 H
   H520       1.0     0.568650      0.756890      0.228530     Biso  1.000000 H
   H521       1.0     0.431350      0.756890      0.728530     Biso  1.000000 H
   H522       1.0     0.568650      0.243110      0.271470     Biso  1.000000 H
   H523       1.0     0.568650      0.243110      0.728530     Biso  1.000000 H
   H524       1.0     0.431350      0.756890      0.271470     Biso  1.000000 H
   H525       1.0     0.068650      0.256890      0.271470     Biso  1.000000 H
   H526       1.0     0.931350      0.743110      0.728530     Biso  1.000000 H
   H527       1.0     0.931350      0.743110      0.271470     Biso  1.000000 H
   H528       1.0     0.068650      0.256890      0.728530     Biso  1.000000 H
   H529       1.0     0.955910      0.241470      0.267180     Biso  1.000000 H
   H530       1.0     0.044090      0.758530      0.732820     Biso  1.000000 H
   H531       1.0     0.044090      0.758530      0.267180     Biso  1.000000 H
   H532       1.0     0.955910      0.241470      0.732820     Biso  1.000000 H
   H533       1.0     0.544090      0.741470      0.732820     Biso  1.000000 H
   H534       1.0     0.455910      0.258530      0.267180     Biso  1.000000 H
   H535       1.0     0.455910      0.258530      0.732820     Biso  1.000000 H
   H536       1.0     0.544090      0.741470      0.267180     Biso  1.000000 H
   H537       1.0     0.455910      0.741470      0.767180     Biso  1.000000 H
   H538       1.0     0.544090      0.258530      0.232820     Biso  1.000000 H
   H539       1.0     0.544090      0.258530      0.767180     Biso  1.000000 H
   H540       1.0     0.455910      0.741470      0.232820     Biso  1.000000 H
   H541       1.0     0.044090      0.241470      0.232820     Biso  1.000000 H
   H542       1.0     0.955910      0.758530      0.767180     Biso  1.000000 H
   H543       1.0     0.955910      0.758530      0.232820     Biso  1.000000 H
   H544       1.0     0.044090      0.241470      0.767180     Biso  1.000000 H
   H545       1.0     0.901320      0.256970      0.175980     Biso  1.000000 H
   H546       1.0     0.098680      0.743030      0.824020     Biso  1.000000 H
   H547       1.0     0.098680      0.743030      0.175980     Biso  1.000000 H
   H548       1.0     0.901320      0.256970      0.824020     Biso  1.000000 H
   H549       1.0     0.598680      0.756970      0.824020     Biso  1.000000 H
   H550       1.0     0.401320      0.243030      0.175980     Biso  1.000000 H
   H551       1.0     0.401320      0.243030      0.824020     Biso  1.000000 H
   H552       1.0     0.598680      0.756970      0.175980     Biso  1.000000 H
   H553       1.0     0.401320      0.756970      0.675980     Biso  1.000000 H
   H554       1.0     0.598680      0.243030      0.324020     Biso  1.000000 H
   H555       1.0     0.598680      0.243030      0.675980     Biso  1.000000 H
   H556       1.0     0.401320      0.756970      0.324020     Biso  1.000000 H
   H557       1.0     0.098680      0.256970      0.324020     Biso  1.000000 H
   H558       1.0     0.901320      0.743030      0.675980     Biso  1.000000 H
   H559       1.0     0.901320      0.743030      0.324020     Biso  1.000000 H
   H560       1.0     0.098680      0.256970      0.675980     Biso  1.000000 H
   H561       1.0     0.877290      0.273610      0.141500     Biso  1.000000 H
   H562       1.0     0.122710      0.726390      0.858500     Biso  1.000000 H
   H563       1.0     0.122710      0.726390      0.141500     Biso  1.000000 H
   H564       1.0     0.877290      0.273610      0.858500     Biso  1.000000 H
   H565       1.0     0.622710      0.773610      0.858500     Biso  1.000000 H
   H566       1.0     0.377290      0.226390      0.141500     Biso  1.000000 H
   H567       1.0     0.377290      0.226390      0.858500     Biso  1.000000 H
   H568       1.0     0.622710      0.773610      0.141500     Biso  1.000000 H
   H569       1.0     0.377290      0.773610      0.641500     Biso  1.000000 H
   H570       1.0     0.622710      0.226390      0.358500     Biso  1.000000 H
   H571       1.0     0.622710      0.226390      0.641500     Biso  1.000000 H
   H572       1.0     0.377290      0.773610      0.358500     Biso  1.000000 H
   H573       1.0     0.122710      0.273610      0.358500     Biso  1.000000 H
   H574       1.0     0.877290      0.726390      0.641500     Biso  1.000000 H
   H575       1.0     0.877290      0.726390      0.358500     Biso  1.000000 H
   H576       1.0     0.122710      0.273610      0.641500     Biso  1.000000 H
   H577       1.0     0.956410      0.287820      0.104980     Biso  1.000000 H
   H578       1.0     0.043590      0.712180      0.895020     Biso  1.000000 H
   H579       1.0     0.043590      0.712180      0.104980     Biso  1.000000 H
   H580       1.0     0.956410      0.287820      0.895020     Biso  1.000000 H
   H581       1.0     0.543590      0.787820      0.895020     Biso  1.000000 H
   H582       1.0     0.456410      0.212180      0.104980     Biso  1.000000 H
   H583       1.0     0.456410      0.212180      0.895020     Biso  1.000000 H
   H584       1.0     0.543590      0.787820      0.104980     Biso  1.000000 H
   H585       1.0     0.456410      0.787820      0.604980     Biso  1.000000 H
   H586       1.0     0.543590      0.212180      0.395020     Biso  1.000000 H
   H587       1.0     0.543590      0.212180      0.604980     Biso  1.000000 H
   H588       1.0     0.456410      0.787820      0.395020     Biso  1.000000 H
   H589       1.0     0.043590      0.287820      0.395020     Biso  1.000000 H
   H590       1.0     0.956410      0.712180      0.604980     Biso  1.000000 H
   H591       1.0     0.956410      0.712180      0.395020     Biso  1.000000 H
   H592       1.0     0.043590      0.287820      0.604980     Biso  1.000000 H
   H593       1.0     0.454280      0.680260      0.165320     Biso  1.000000 H
   H594       1.0     0.545720      0.319740      0.834680     Biso  1.000000 H
   H595       1.0     0.545720      0.319740      0.165320     Biso  1.000000 H
   H596       1.0     0.454280      0.680260      0.834680     Biso  1.000000 H
   H597       1.0     0.045720      0.180260      0.834680     Biso  1.000000 H
   H598       1.0     0.954280      0.819740      0.165320     Biso  1.000000 H
   H599       1.0     0.954280      0.819740      0.834680     Biso  1.000000 H
   H600       1.0     0.045720      0.180260      0.165320     Biso  1.000000 H
   H601       1.0     0.954280      0.180260      0.665320     Biso  1.000000 H
   H602       1.0     0.045720      0.819740      0.334680     Biso  1.000000 H
   H603       1.0     0.045720      0.819740      0.665320     Biso  1.000000 H
   H604       1.0     0.954280      0.180260      0.334680     Biso  1.000000 H
   H605       1.0     0.545720      0.680260      0.334680     Biso  1.000000 H
   H606       1.0     0.454280      0.319740      0.665320     Biso  1.000000 H
   H607       1.0     0.454280      0.319740      0.334680     Biso  1.000000 H
   H608       1.0     0.545720      0.680260      0.665320     Biso  1.000000 H
   H609       1.0     0.420860      0.667490      0.129350     Biso  1.000000 H
   H610       1.0     0.579140      0.332510      0.870650     Biso  1.000000 H
   H611       1.0     0.579140      0.332510      0.129350     Biso  1.000000 H
   H612       1.0     0.420860      0.667490      0.870650     Biso  1.000000 H
   H613       1.0     0.079140      0.167490      0.870650     Biso  1.000000 H
   H614       1.0     0.920860      0.832510      0.129350     Biso  1.000000 H
   H615       1.0     0.920860      0.832510      0.870650     Biso  1.000000 H
   H616       1.0     0.079140      0.167490      0.129350     Biso  1.000000 H
   H617       1.0     0.920860      0.167490      0.629350     Biso  1.000000 H
   H618       1.0     0.079140      0.832510      0.370650     Biso  1.000000 H
   H619       1.0     0.079140      0.832510      0.629350     Biso  1.000000 H
   H620       1.0     0.920860      0.167490      0.370650     Biso  1.000000 H
   H621       1.0     0.579140      0.667490      0.370650     Biso  1.000000 H
   H622       1.0     0.420860      0.332510      0.629350     Biso  1.000000 H
   H623       1.0     0.420860      0.332510      0.370650     Biso  1.000000 H
   H624       1.0     0.579140      0.667490      0.629350     Biso  1.000000 H
   H625       1.0     0.359850      0.696660      0.136200     Biso  1.000000 H
   H626       1.0     0.640150      0.303340      0.863800     Biso  1.000000 H
   H627       1.0     0.640150      0.303340      0.136200     Biso  1.000000 H
   H628       1.0     0.359850      0.696660      0.863800     Biso  1.000000 H
   H629       1.0     0.140150      0.196660      0.863800     Biso  1.000000 H
   H630       1.0     0.859850      0.803340      0.136200     Biso  1.000000 H
   H631       1.0     0.859850      0.803340      0.863800     Biso  1.000000 H
   H632       1.0     0.140150      0.196660      0.136200     Biso  1.000000 H
   H633       1.0     0.859850      0.196660      0.636200     Biso  1.000000 H
   H634       1.0     0.140150      0.803340      0.363800     Biso  1.000000 H
   H635       1.0     0.140150      0.803340      0.636200     Biso  1.000000 H
   H636       1.0     0.859850      0.196660      0.363800     Biso  1.000000 H
   H637       1.0     0.640150      0.696660      0.363800     Biso  1.000000 H
   H638       1.0     0.359850      0.303340      0.636200     Biso  1.000000 H
   H639       1.0     0.359850      0.303340      0.363800     Biso  1.000000 H
   H640       1.0     0.640150      0.696660      0.636200     Biso  1.000000 H
