#======================================================================

# CRYSTAL DATA

#----------------------------------------------------------------------

data_VESTA_phase_1


_chemical_name_common                  ''
_cell_length_a                         23.52680
_cell_length_b                         23.52680
_cell_length_c                         37.15450
_cell_angle_alpha                      90
_cell_angle_beta                       90
_cell_angle_gamma                      120
_space_group_name_H-M_alt              'P 1'
_space_group_IT_number                 1

loop_
_space_group_symop_operation_xyz
   'x, y, z'

loop_
   _atom_site_label
   _atom_site_occupancy
   _atom_site_fract_x
   _atom_site_fract_y
   _atom_site_fract_z
   _atom_site_adp_type
   _atom_site_B_iso_or_equiv
   _atom_site_type_symbol
   H1         1.0     0.306930      0.269560      0.113610     Biso  1.000000 H
   H2         1.0     0.693070      0.730440      0.886390     Biso  1.000000 H
   H3         1.0     0.730440      0.037370      0.113610     Biso  1.000000 H
   H4         1.0     0.269560      0.962630      0.886390     Biso  1.000000 H
   H5         1.0     0.962630      0.693070      0.113610     Biso  1.000000 H
   H6         1.0     0.037370      0.306930      0.886390     Biso  1.000000 H
   H7         1.0     0.693070      0.730440      0.113610     Biso  1.000000 H
   H8         1.0     0.306930      0.269560      0.886390     Biso  1.000000 H
   H9         1.0     0.269560      0.962630      0.113610     Biso  1.000000 H
   H10        1.0     0.730440      0.037370      0.886390     Biso  1.000000 H
   H11        1.0     0.037370      0.306930      0.113610     Biso  1.000000 H
   H12        1.0     0.962630      0.693070      0.886390     Biso  1.000000 H
   H13        1.0     0.269560      0.306930      0.386390     Biso  1.000000 H
   H14        1.0     0.730440      0.693070      0.613610     Biso  1.000000 H
   H15        1.0     0.037370      0.730440      0.386390     Biso  1.000000 H
   H16        1.0     0.962630      0.269560      0.613610     Biso  1.000000 H
   H17        1.0     0.693070      0.962630      0.386390     Biso  1.000000 H
   H18        1.0     0.306930      0.037370      0.613610     Biso  1.000000 H
   H19        1.0     0.730440      0.693070      0.386390     Biso  1.000000 H
   H20        1.0     0.269560      0.306930      0.613610     Biso  1.000000 H
   H21        1.0     0.962630      0.269560      0.386390     Biso  1.000000 H
   H22        1.0     0.037370      0.730440      0.613610     Biso  1.000000 H
   H23        1.0     0.306930      0.037370      0.386390     Biso  1.000000 H
   H24        1.0     0.693070      0.962630      0.613610     Biso  1.000000 H
   H25        1.0     0.510070      0.291390      0.096530     Biso  1.000000 H
   H26        1.0     0.489930      0.708610      0.903470     Biso  1.000000 H
   H27        1.0     0.708610      0.218680      0.096530     Biso  1.000000 H
   H28        1.0     0.291390      0.781320      0.903470     Biso  1.000000 H
   H29        1.0     0.781320      0.489930      0.096530     Biso  1.000000 H
   H30        1.0     0.218680      0.510070      0.903470     Biso  1.000000 H
   H31        1.0     0.489930      0.708610      0.096530     Biso  1.000000 H
   H32        1.0     0.510070      0.291390      0.903470     Biso  1.000000 H
   H33        1.0     0.291390      0.781320      0.096530     Biso  1.000000 H
   H34        1.0     0.708610      0.218680      0.903470     Biso  1.000000 H
   H35        1.0     0.218680      0.510070      0.096530     Biso  1.000000 H
   H36        1.0     0.781320      0.489930      0.903470     Biso  1.000000 H
   H37        1.0     0.291390      0.510070      0.403470     Biso  1.000000 H
   H38        1.0     0.708610      0.489930      0.596530     Biso  1.000000 H
   H39        1.0     0.218680      0.708610      0.403470     Biso  1.000000 H
   H40        1.0     0.781320      0.291390      0.596530     Biso  1.000000 H
   H41        1.0     0.489930      0.781320      0.403470     Biso  1.000000 H
   H42        1.0     0.510070      0.218680      0.596530     Biso  1.000000 H
   H43        1.0     0.708610      0.489930      0.403470     Biso  1.000000 H
   H44        1.0     0.291390      0.510070      0.596530     Biso  1.000000 H
   H45        1.0     0.781320      0.291390      0.403470     Biso  1.000000 H
   H46        1.0     0.218680      0.708610      0.596530     Biso  1.000000 H
   H47        1.0     0.510070      0.218680      0.403470     Biso  1.000000 H
   H48        1.0     0.489930      0.781320      0.596530     Biso  1.000000 H
   H49        1.0     0.346830      0.132240      0.182420     Biso  1.000000 H
   H50        1.0     0.653170      0.867760      0.817580     Biso  1.000000 H
   H51        1.0     0.867760      0.214590      0.182420     Biso  1.000000 H
   H52        1.0     0.132240      0.785410      0.817580     Biso  1.000000 H
   H53        1.0     0.785410      0.653170      0.182420     Biso  1.000000 H
   H54        1.0     0.214590      0.346830      0.817580     Biso  1.000000 H
   H55        1.0     0.653170      0.867760      0.182420     Biso  1.000000 H
   H56        1.0     0.346830      0.132240      0.817580     Biso  1.000000 H
   H57        1.0     0.132240      0.785410      0.182420     Biso  1.000000 H
   H58        1.0     0.867760      0.214590      0.817580     Biso  1.000000 H
   H59        1.0     0.214590      0.346830      0.182420     Biso  1.000000 H
   H60        1.0     0.785410      0.653170      0.817580     Biso  1.000000 H
   H61        1.0     0.132240      0.346830      0.317580     Biso  1.000000 H
   H62        1.0     0.867760      0.653170      0.682420     Biso  1.000000 H
   H63        1.0     0.214590      0.867760      0.317580     Biso  1.000000 H
   H64        1.0     0.785410      0.132240      0.682420     Biso  1.000000 H
   H65        1.0     0.653170      0.785410      0.317580     Biso  1.000000 H
   H66        1.0     0.346830      0.214590      0.682420     Biso  1.000000 H
   H67        1.0     0.867760      0.653170      0.317580     Biso  1.000000 H
   H68        1.0     0.132240      0.346830      0.682420     Biso  1.000000 H
   H69        1.0     0.785410      0.132240      0.317580     Biso  1.000000 H
   H70        1.0     0.214590      0.867760      0.682420     Biso  1.000000 H
   H71        1.0     0.346830      0.214590      0.317580     Biso  1.000000 H
   H72        1.0     0.653170      0.785410      0.682420     Biso  1.000000 H
   H73        1.0     0.323830      0.209040      0.151470     Biso  1.000000 H
   H74        1.0     0.676170      0.790960      0.848530     Biso  1.000000 H
   H75        1.0     0.790960      0.114790      0.151470     Biso  1.000000 H
   H76        1.0     0.209040      0.885210      0.848530     Biso  1.000000 H
   H77        1.0     0.885210      0.676170      0.151470     Biso  1.000000 H
   H78        1.0     0.114790      0.323830      0.848530     Biso  1.000000 H
   H79        1.0     0.676170      0.790960      0.151470     Biso  1.000000 H
   H80        1.0     0.323830      0.209040      0.848530     Biso  1.000000 H
   H81        1.0     0.209040      0.885210      0.151470     Biso  1.000000 H
   H82        1.0     0.790960      0.114790      0.848530     Biso  1.000000 H
   H83        1.0     0.114790      0.323830      0.151470     Biso  1.000000 H
   H84        1.0     0.885210      0.676170      0.848530     Biso  1.000000 H
   H85        1.0     0.209040      0.323830      0.348530     Biso  1.000000 H
   H86        1.0     0.790960      0.676170      0.651470     Biso  1.000000 H
   H87        1.0     0.114790      0.790960      0.348530     Biso  1.000000 H
   H88        1.0     0.885210      0.209040      0.651470     Biso  1.000000 H
   H89        1.0     0.676170      0.885210      0.348530     Biso  1.000000 H
   H90        1.0     0.323830      0.114790      0.651470     Biso  1.000000 H
   H91        1.0     0.790960      0.676170      0.348530     Biso  1.000000 H
   H92        1.0     0.209040      0.323830      0.651470     Biso  1.000000 H
   H93        1.0     0.885210      0.209040      0.348530     Biso  1.000000 H
   H94        1.0     0.114790      0.790960      0.651470     Biso  1.000000 H
   H95        1.0     0.323830      0.114790      0.348530     Biso  1.000000 H
   H96        1.0     0.676170      0.885210      0.651470     Biso  1.000000 H
   H97        1.0     0.239530      0.403930      0.052130     Biso  1.000000 H
   H98        1.0     0.760470      0.596070      0.947870     Biso  1.000000 H
   H99        1.0     0.596070      0.835600      0.052130     Biso  1.000000 H
   H100       1.0     0.403930      0.164400      0.947870     Biso  1.000000 H
   H101       1.0     0.164400      0.760470      0.052130     Biso  1.000000 H
   H102       1.0     0.835600      0.239530      0.947870     Biso  1.000000 H
   H103       1.0     0.760470      0.596070      0.052130     Biso  1.000000 H
   H104       1.0     0.239530      0.403930      0.947870     Biso  1.000000 H
   H105       1.0     0.403930      0.164400      0.052130     Biso  1.000000 H
   H106       1.0     0.596070      0.835600      0.947870     Biso  1.000000 H
   H107       1.0     0.835600      0.239530      0.052130     Biso  1.000000 H
   H108       1.0     0.164400      0.760470      0.947870     Biso  1.000000 H
   H109       1.0     0.403930      0.239530      0.447870     Biso  1.000000 H
   H110       1.0     0.596070      0.760470      0.552130     Biso  1.000000 H
   H111       1.0     0.835600      0.596070      0.447870     Biso  1.000000 H
   H112       1.0     0.164400      0.403930      0.552130     Biso  1.000000 H
   H113       1.0     0.760470      0.164400      0.447870     Biso  1.000000 H
   H114       1.0     0.239530      0.835600      0.552130     Biso  1.000000 H
   H115       1.0     0.596070      0.760470      0.447870     Biso  1.000000 H
   H116       1.0     0.403930      0.239530      0.552130     Biso  1.000000 H
   H117       1.0     0.164400      0.403930      0.447870     Biso  1.000000 H
   H118       1.0     0.835600      0.596070      0.552130     Biso  1.000000 H
   H119       1.0     0.239530      0.835600      0.447870     Biso  1.000000 H
   H120       1.0     0.760470      0.164400      0.552130     Biso  1.000000 H
   H121       1.0     0.447690      0.499130      0.033430     Biso  1.000000 H
   H122       1.0     0.552310      0.500870      0.966570     Biso  1.000000 H
   H123       1.0     0.500870      0.948560      0.033430     Biso  1.000000 H
   H124       1.0     0.499130      0.051440      0.966570     Biso  1.000000 H
   H125       1.0     0.051440      0.552310      0.033430     Biso  1.000000 H
   H126       1.0     0.948560      0.447690      0.966570     Biso  1.000000 H
   H127       1.0     0.552310      0.500870      0.033430     Biso  1.000000 H
   H128       1.0     0.447690      0.499130      0.966570     Biso  1.000000 H
   H129       1.0     0.499130      0.051440      0.033430     Biso  1.000000 H
   H130       1.0     0.500870      0.948560      0.966570     Biso  1.000000 H
   H131       1.0     0.948560      0.447690      0.033430     Biso  1.000000 H
   H132       1.0     0.051440      0.552310      0.966570     Biso  1.000000 H
   H133       1.0     0.499130      0.447690      0.466570     Biso  1.000000 H
   H134       1.0     0.500870      0.552310      0.533430     Biso  1.000000 H
   H135       1.0     0.948560      0.500870      0.466570     Biso  1.000000 H
   H136       1.0     0.051440      0.499130      0.533430     Biso  1.000000 H
   H137       1.0     0.552310      0.051440      0.466570     Biso  1.000000 H
   H138       1.0     0.447690      0.948560      0.533430     Biso  1.000000 H
   H139       1.0     0.500870      0.552310      0.466570     Biso  1.000000 H
   H140       1.0     0.499130      0.447690      0.533430     Biso  1.000000 H
   H141       1.0     0.051440      0.499130      0.466570     Biso  1.000000 H
   H142       1.0     0.948560      0.500870      0.533430     Biso  1.000000 H
   H143       1.0     0.447690      0.948560      0.466570     Biso  1.000000 H
   H144       1.0     0.552310      0.051440      0.533430     Biso  1.000000 H
   H145       1.0     0.453660      0.413750      0.068290     Biso  1.000000 H
   H146       1.0     0.546340      0.586250      0.931710     Biso  1.000000 H
   H147       1.0     0.586250      0.039910      0.068290     Biso  1.000000 H
   H148       1.0     0.413750      0.960090      0.931710     Biso  1.000000 H
   H149       1.0     0.960090      0.546340      0.068290     Biso  1.000000 H
   H150       1.0     0.039910      0.453660      0.931710     Biso  1.000000 H
   H151       1.0     0.546340      0.586250      0.068290     Biso  1.000000 H
   H152       1.0     0.453660      0.413750      0.931710     Biso  1.000000 H
   H153       1.0     0.413750      0.960090      0.068290     Biso  1.000000 H
   H154       1.0     0.586250      0.039910      0.931710     Biso  1.000000 H
   H155       1.0     0.039910      0.453660      0.068290     Biso  1.000000 H
   H156       1.0     0.960090      0.546340      0.931710     Biso  1.000000 H
   H157       1.0     0.413750      0.453660      0.431710     Biso  1.000000 H
   H158       1.0     0.586250      0.546340      0.568290     Biso  1.000000 H
   H159       1.0     0.039910      0.586250      0.431710     Biso  1.000000 H
   H160       1.0     0.960090      0.413750      0.568290     Biso  1.000000 H
   H161       1.0     0.546340      0.960090      0.431710     Biso  1.000000 H
   H162       1.0     0.453660      0.039910      0.568290     Biso  1.000000 H
   H163       1.0     0.586250      0.546340      0.431710     Biso  1.000000 H
   H164       1.0     0.413750      0.453660      0.568290     Biso  1.000000 H
   H165       1.0     0.960090      0.413750      0.431710     Biso  1.000000 H
   H166       1.0     0.039910      0.586250      0.568290     Biso  1.000000 H
   H167       1.0     0.453660      0.039910      0.431710     Biso  1.000000 H
   H168       1.0     0.546340      0.960090      0.568290     Biso  1.000000 H
   H169       1.0     0.357620      0.038480      0.177870     Biso  1.000000 H
   H170       1.0     0.642380      0.961520      0.822130     Biso  1.000000 H
   H171       1.0     0.961520      0.319140      0.177870     Biso  1.000000 H
   H172       1.0     0.038480      0.680860      0.822130     Biso  1.000000 H
   H173       1.0     0.680860      0.642380      0.177870     Biso  1.000000 H
   H174       1.0     0.319140      0.357620      0.822130     Biso  1.000000 H
   H175       1.0     0.642380      0.961520      0.177870     Biso  1.000000 H
   H176       1.0     0.357620      0.038480      0.822130     Biso  1.000000 H
   H177       1.0     0.038480      0.680860      0.177870     Biso  1.000000 H
   H178       1.0     0.961520      0.319140      0.822130     Biso  1.000000 H
   H179       1.0     0.319140      0.357620      0.177870     Biso  1.000000 H
   H180       1.0     0.680860      0.642380      0.822130     Biso  1.000000 H
   H181       1.0     0.038480      0.357620      0.322130     Biso  1.000000 H
   H182       1.0     0.961520      0.642380      0.677870     Biso  1.000000 H
   H183       1.0     0.319140      0.961520      0.322130     Biso  1.000000 H
   H184       1.0     0.680860      0.038480      0.677870     Biso  1.000000 H
   H185       1.0     0.642380      0.680860      0.322130     Biso  1.000000 H
   H186       1.0     0.357620      0.319140      0.677870     Biso  1.000000 H
   H187       1.0     0.961520      0.642380      0.322130     Biso  1.000000 H
   H188       1.0     0.038480      0.357620      0.677870     Biso  1.000000 H
   H189       1.0     0.680860      0.038480      0.322130     Biso  1.000000 H
   H190       1.0     0.319140      0.961520      0.677870     Biso  1.000000 H
   H191       1.0     0.357620      0.319140      0.322130     Biso  1.000000 H
   H192       1.0     0.642380      0.680860      0.677870     Biso  1.000000 H
   H193       1.0     0.381560      0.969990      0.216800     Biso  1.000000 H
   H194       1.0     0.618440      0.030010      0.783200     Biso  1.000000 H
   H195       1.0     0.030010      0.411570      0.216800     Biso  1.000000 H
   H196       1.0     0.969990      0.588430      0.783200     Biso  1.000000 H
   H197       1.0     0.588430      0.618440      0.216800     Biso  1.000000 H
   H198       1.0     0.411570      0.381560      0.783200     Biso  1.000000 H
   H199       1.0     0.618440      0.030010      0.216800     Biso  1.000000 H
   H200       1.0     0.381560      0.969990      0.783200     Biso  1.000000 H
   H201       1.0     0.969990      0.588430      0.216800     Biso  1.000000 H
   H202       1.0     0.030010      0.411570      0.783200     Biso  1.000000 H
   H203       1.0     0.411570      0.381560      0.216800     Biso  1.000000 H
   H204       1.0     0.588430      0.618440      0.783200     Biso  1.000000 H
   H205       1.0     0.969990      0.381560      0.283200     Biso  1.000000 H
   H206       1.0     0.030010      0.618440      0.716800     Biso  1.000000 H
   H207       1.0     0.411570      0.030010      0.283200     Biso  1.000000 H
   H208       1.0     0.588430      0.969990      0.716800     Biso  1.000000 H
   H209       1.0     0.618440      0.588430      0.283200     Biso  1.000000 H
   H210       1.0     0.381560      0.411570      0.716800     Biso  1.000000 H
   H211       1.0     0.030010      0.618440      0.283200     Biso  1.000000 H
   H212       1.0     0.969990      0.381560      0.716800     Biso  1.000000 H
   H213       1.0     0.588430      0.969990      0.283200     Biso  1.000000 H
   H214       1.0     0.411570      0.030010      0.716800     Biso  1.000000 H
   H215       1.0     0.381560      0.411570      0.283200     Biso  1.000000 H
   H216       1.0     0.618440      0.588430      0.716800     Biso  1.000000 H
   H217       1.0     0.586190      0.119830      0.217880     Biso  1.000000 H
   H218       1.0     0.413810      0.880170      0.782120     Biso  1.000000 H
   H219       1.0     0.880170      0.466360      0.217880     Biso  1.000000 H
   H220       1.0     0.119830      0.533640      0.782120     Biso  1.000000 H
   H221       1.0     0.533640      0.413810      0.217880     Biso  1.000000 H
   H222       1.0     0.466360      0.586190      0.782120     Biso  1.000000 H
   H223       1.0     0.413810      0.880170      0.217880     Biso  1.000000 H
   H224       1.0     0.586190      0.119830      0.782120     Biso  1.000000 H
   H225       1.0     0.119830      0.533640      0.217880     Biso  1.000000 H
   H226       1.0     0.880170      0.466360      0.782120     Biso  1.000000 H
   H227       1.0     0.466360      0.586190      0.217880     Biso  1.000000 H
   H228       1.0     0.533640      0.413810      0.782120     Biso  1.000000 H
   H229       1.0     0.119830      0.586190      0.282120     Biso  1.000000 H
   H230       1.0     0.880170      0.413810      0.717880     Biso  1.000000 H
   H231       1.0     0.466360      0.880170      0.282120     Biso  1.000000 H
   H232       1.0     0.533640      0.119830      0.717880     Biso  1.000000 H
   H233       1.0     0.413810      0.533640      0.282120     Biso  1.000000 H
   H234       1.0     0.586190      0.466360      0.717880     Biso  1.000000 H
   H235       1.0     0.880170      0.413810      0.282120     Biso  1.000000 H
   H236       1.0     0.119830      0.586190      0.717880     Biso  1.000000 H
   H237       1.0     0.533640      0.119830      0.282120     Biso  1.000000 H
   H238       1.0     0.466360      0.880170      0.717880     Biso  1.000000 H
   H239       1.0     0.586190      0.466360      0.282120     Biso  1.000000 H
   H240       1.0     0.413810      0.533640      0.717880     Biso  1.000000 H
   H241       1.0     0.561730      0.189900      0.181490     Biso  1.000000 H
   H242       1.0     0.438270      0.810100      0.818510     Biso  1.000000 H
   H243       1.0     0.810100      0.371830      0.181490     Biso  1.000000 H
   H244       1.0     0.189900      0.628170      0.818510     Biso  1.000000 H
   H245       1.0     0.628170      0.438270      0.181490     Biso  1.000000 H
   H246       1.0     0.371830      0.561730      0.818510     Biso  1.000000 H
   H247       1.0     0.438270      0.810100      0.181490     Biso  1.000000 H
   H248       1.0     0.561730      0.189900      0.818510     Biso  1.000000 H
   H249       1.0     0.189900      0.628170      0.181490     Biso  1.000000 H
   H250       1.0     0.810100      0.371830      0.818510     Biso  1.000000 H
   H251       1.0     0.371830      0.561730      0.181490     Biso  1.000000 H
   H252       1.0     0.628170      0.438270      0.818510     Biso  1.000000 H
   H253       1.0     0.189900      0.561730      0.318510     Biso  1.000000 H
   H254       1.0     0.810100      0.438270      0.681490     Biso  1.000000 H
   H255       1.0     0.371830      0.810100      0.318510     Biso  1.000000 H
   H256       1.0     0.628170      0.189900      0.681490     Biso  1.000000 H
   H257       1.0     0.438270      0.628170      0.318510     Biso  1.000000 H
   H258       1.0     0.561730      0.371830      0.681490     Biso  1.000000 H
   H259       1.0     0.810100      0.438270      0.318510     Biso  1.000000 H
   H260       1.0     0.189900      0.561730      0.681490     Biso  1.000000 H
   H261       1.0     0.628170      0.189900      0.318510     Biso  1.000000 H
   H262       1.0     0.371830      0.810100      0.681490     Biso  1.000000 H
   H263       1.0     0.561730      0.371830      0.318510     Biso  1.000000 H
   H264       1.0     0.438270      0.628170      0.681490     Biso  1.000000 H
   H265       1.0     0.439690      0.660780      0.567060     Biso  1.000000 H
   H266       1.0     0.560310      0.339220      0.432940     Biso  1.000000 H
   H267       1.0     0.339220      0.778910      0.567060     Biso  1.000000 H
   H268       1.0     0.660780      0.221090      0.432940     Biso  1.000000 H
   H269       1.0     0.221090      0.560310      0.567060     Biso  1.000000 H
   H270       1.0     0.778910      0.439690      0.432940     Biso  1.000000 H
   H271       1.0     0.560310      0.339220      0.567060     Biso  1.000000 H
   H272       1.0     0.439690      0.660780      0.432940     Biso  1.000000 H
   H273       1.0     0.660780      0.221090      0.567060     Biso  1.000000 H
   H274       1.0     0.339220      0.778910      0.432940     Biso  1.000000 H
   H275       1.0     0.778910      0.439690      0.567060     Biso  1.000000 H
   H276       1.0     0.221090      0.560310      0.432940     Biso  1.000000 H
   H277       1.0     0.660780      0.439690      0.932940     Biso  1.000000 H
   H278       1.0     0.339220      0.560310      0.067060     Biso  1.000000 H
   H279       1.0     0.778910      0.339220      0.932940     Biso  1.000000 H
   H280       1.0     0.221090      0.660780      0.067060     Biso  1.000000 H
   H281       1.0     0.560310      0.221090      0.932940     Biso  1.000000 H
   H282       1.0     0.439690      0.778910      0.067060     Biso  1.000000 H
   H283       1.0     0.339220      0.560310      0.932940     Biso  1.000000 H
   H284       1.0     0.660780      0.439690      0.067060     Biso  1.000000 H
   H285       1.0     0.221090      0.660780      0.932940     Biso  1.000000 H
   H286       1.0     0.778910      0.339220      0.067060     Biso  1.000000 H
   H287       1.0     0.439690      0.778910      0.932940     Biso  1.000000 H
   H288       1.0     0.560310      0.221090      0.067060     Biso  1.000000 H
   H289       1.0     0.318620      0.244860      0.587750     Biso  1.000000 H
   H290       1.0     0.681380      0.755140      0.412250     Biso  1.000000 H
   H291       1.0     0.755140      0.073760      0.587750     Biso  1.000000 H
   H292       1.0     0.244860      0.926240      0.412250     Biso  1.000000 H
   H293       1.0     0.926240      0.681380      0.587750     Biso  1.000000 H
   H294       1.0     0.073760      0.318620      0.412250     Biso  1.000000 H
   H295       1.0     0.681380      0.755140      0.587750     Biso  1.000000 H
   H296       1.0     0.318620      0.244860      0.412250     Biso  1.000000 H
   H297       1.0     0.244860      0.926240      0.587750     Biso  1.000000 H
   H298       1.0     0.755140      0.073760      0.412250     Biso  1.000000 H
   H299       1.0     0.073760      0.318620      0.587750     Biso  1.000000 H
   H300       1.0     0.926240      0.681380      0.412250     Biso  1.000000 H
   H301       1.0     0.244860      0.318620      0.912250     Biso  1.000000 H
   H302       1.0     0.755140      0.681380      0.087750     Biso  1.000000 H
   H303       1.0     0.073760      0.755140      0.912250     Biso  1.000000 H
   H304       1.0     0.926240      0.244860      0.087750     Biso  1.000000 H
   H305       1.0     0.681380      0.926240      0.912250     Biso  1.000000 H
   H306       1.0     0.318620      0.073760      0.087750     Biso  1.000000 H
   H307       1.0     0.755140      0.681380      0.912250     Biso  1.000000 H
   H308       1.0     0.244860      0.318620      0.087750     Biso  1.000000 H
   H309       1.0     0.926240      0.244860      0.912250     Biso  1.000000 H
   H310       1.0     0.073760      0.755140      0.087750     Biso  1.000000 H
   H311       1.0     0.318620      0.073760      0.912250     Biso  1.000000 H
   H312       1.0     0.681380      0.926240      0.087750     Biso  1.000000 H
   H313       1.0     0.333333      0.666667      0.565900     Biso  1.000000 H
   H314       1.0     0.666667      0.333333      0.434100     Biso  1.000000 H
   H315       1.0     0.666667      0.333333      0.565900     Biso  1.000000 H
   H316       1.0     0.333333      0.666667      0.434100     Biso  1.000000 H
   H317       1.0     0.666667      0.333333      0.934100     Biso  1.000000 H
   H318       1.0     0.333333      0.666667      0.065900     Biso  1.000000 H
   H319       1.0     0.333333      0.666667      0.934100     Biso  1.000000 H
   H320       1.0     0.666667      0.333333      0.065900     Biso  1.000000 H
   C1         1.0     0.351550      0.306660      0.100980     Biso  1.000000 C
   C2         1.0     0.648450      0.693340      0.899020     Biso  1.000000 C
   C3         1.0     0.693340      0.044890      0.100980     Biso  1.000000 C
   C4         1.0     0.306660      0.955110      0.899020     Biso  1.000000 C
   C5         1.0     0.955110      0.648450      0.100980     Biso  1.000000 C
   C6         1.0     0.044890      0.351550      0.899020     Biso  1.000000 C
   C7         1.0     0.648450      0.693340      0.100980     Biso  1.000000 C
   C8         1.0     0.351550      0.306660      0.899020     Biso  1.000000 C
   C9         1.0     0.306660      0.955110      0.100980     Biso  1.000000 C
   C10        1.0     0.693340      0.044890      0.899020     Biso  1.000000 C
   C11        1.0     0.044890      0.351550      0.100980     Biso  1.000000 C
   C12        1.0     0.955110      0.648450      0.899020     Biso  1.000000 C
   C13        1.0     0.306660      0.351550      0.399020     Biso  1.000000 C
   C14        1.0     0.693340      0.648450      0.600980     Biso  1.000000 C
   C15        1.0     0.044890      0.693340      0.399020     Biso  1.000000 C
   C16        1.0     0.955110      0.306660      0.600980     Biso  1.000000 C
   C17        1.0     0.648450      0.955110      0.399020     Biso  1.000000 C
   C18        1.0     0.351550      0.044890      0.600980     Biso  1.000000 C
   C19        1.0     0.693340      0.648450      0.399020     Biso  1.000000 C
   C20        1.0     0.306660      0.351550      0.600980     Biso  1.000000 C
   C21        1.0     0.955110      0.306660      0.399020     Biso  1.000000 C
   C22        1.0     0.044890      0.693340      0.600980     Biso  1.000000 C
   C23        1.0     0.351550      0.044890      0.399020     Biso  1.000000 C
   C24        1.0     0.648450      0.955110      0.600980     Biso  1.000000 C
   C25        1.0     0.474070      0.256300      0.115060     Biso  1.000000 C
   C26        1.0     0.525930      0.743700      0.884940     Biso  1.000000 C
   C27        1.0     0.743700      0.217770      0.115060     Biso  1.000000 C
   C28        1.0     0.256300      0.782230      0.884940     Biso  1.000000 C
   C29        1.0     0.782230      0.525930      0.115060     Biso  1.000000 C
   C30        1.0     0.217770      0.474070      0.884940     Biso  1.000000 C
   C31        1.0     0.525930      0.743700      0.115060     Biso  1.000000 C
   C32        1.0     0.474070      0.256300      0.884940     Biso  1.000000 C
   C33        1.0     0.256300      0.782230      0.115060     Biso  1.000000 C
   C34        1.0     0.743700      0.217770      0.884940     Biso  1.000000 C
   C35        1.0     0.217770      0.474070      0.115060     Biso  1.000000 C
   C36        1.0     0.782230      0.525930      0.884940     Biso  1.000000 C
   C37        1.0     0.256300      0.474070      0.384940     Biso  1.000000 C
   C38        1.0     0.743700      0.525930      0.615060     Biso  1.000000 C
   C39        1.0     0.217770      0.743700      0.384940     Biso  1.000000 C
   C40        1.0     0.782230      0.256300      0.615060     Biso  1.000000 C
   C41        1.0     0.525930      0.782230      0.384940     Biso  1.000000 C
   C42        1.0     0.474070      0.217770      0.615060     Biso  1.000000 C
   C43        1.0     0.743700      0.525930      0.384940     Biso  1.000000 C
   C44        1.0     0.256300      0.474070      0.615060     Biso  1.000000 C
   C45        1.0     0.782230      0.256300      0.384940     Biso  1.000000 C
   C46        1.0     0.217770      0.743700      0.615060     Biso  1.000000 C
   C47        1.0     0.474070      0.217770      0.384940     Biso  1.000000 C
   C48        1.0     0.525930      0.782230      0.615060     Biso  1.000000 C
   C49        1.0     0.487130      0.211740      0.132790     Biso  1.000000 C
   C50        1.0     0.512870      0.788260      0.867210     Biso  1.000000 C
   C51        1.0     0.788260      0.275390      0.132790     Biso  1.000000 C
   C52        1.0     0.211740      0.724610      0.867210     Biso  1.000000 C
   C53        1.0     0.724610      0.512870      0.132790     Biso  1.000000 C
   C54        1.0     0.275390      0.487130      0.867210     Biso  1.000000 C
   C55        1.0     0.512870      0.788260      0.132790     Biso  1.000000 C
   C56        1.0     0.487130      0.211740      0.867210     Biso  1.000000 C
   C57        1.0     0.211740      0.724610      0.132790     Biso  1.000000 C
   C58        1.0     0.788260      0.275390      0.867210     Biso  1.000000 C
   C59        1.0     0.275390      0.487130      0.132790     Biso  1.000000 C
   C60        1.0     0.724610      0.512870      0.867210     Biso  1.000000 C
   C61        1.0     0.211740      0.487130      0.367210     Biso  1.000000 C
   C62        1.0     0.788260      0.512870      0.632790     Biso  1.000000 C
   C63        1.0     0.275390      0.788260      0.367210     Biso  1.000000 C
   C64        1.0     0.724610      0.211740      0.632790     Biso  1.000000 C
   C65        1.0     0.512870      0.724610      0.367210     Biso  1.000000 C
   C66        1.0     0.487130      0.275390      0.632790     Biso  1.000000 C
   C67        1.0     0.788260      0.512870      0.367210     Biso  1.000000 C
   C68        1.0     0.211740      0.487130      0.632790     Biso  1.000000 C
   C69        1.0     0.724610      0.211740      0.367210     Biso  1.000000 C
   C70        1.0     0.275390      0.788260      0.632790     Biso  1.000000 C
   C71        1.0     0.487130      0.275390      0.367210     Biso  1.000000 C
   C72        1.0     0.512870      0.724610      0.632790     Biso  1.000000 C
   C73        1.0     0.441560      0.165890      0.157160     Biso  1.000000 C
   C74        1.0     0.558440      0.834110      0.842840     Biso  1.000000 C
   C75        1.0     0.834110      0.275670      0.157160     Biso  1.000000 C
   C76        1.0     0.165890      0.724330      0.842840     Biso  1.000000 C
   C77        1.0     0.724330      0.558440      0.157160     Biso  1.000000 C
   C78        1.0     0.275670      0.441560      0.842840     Biso  1.000000 C
   C79        1.0     0.558440      0.834110      0.157160     Biso  1.000000 C
   C80        1.0     0.441560      0.165890      0.842840     Biso  1.000000 C
   C81        1.0     0.165890      0.724330      0.157160     Biso  1.000000 C
   C82        1.0     0.834110      0.275670      0.842840     Biso  1.000000 C
   C83        1.0     0.275670      0.441560      0.157160     Biso  1.000000 C
   C84        1.0     0.724330      0.558440      0.842840     Biso  1.000000 C
   C85        1.0     0.165890      0.441560      0.342840     Biso  1.000000 C
   C86        1.0     0.834110      0.558440      0.657160     Biso  1.000000 C
   C87        1.0     0.275670      0.834110      0.342840     Biso  1.000000 C
   C88        1.0     0.724330      0.165890      0.657160     Biso  1.000000 C
   C89        1.0     0.558440      0.724330      0.342840     Biso  1.000000 C
   C90        1.0     0.441560      0.275670      0.657160     Biso  1.000000 C
   C91        1.0     0.834110      0.558440      0.342840     Biso  1.000000 C
   C92        1.0     0.165890      0.441560      0.657160     Biso  1.000000 C
   C93        1.0     0.724330      0.165890      0.342840     Biso  1.000000 C
   C94        1.0     0.275670      0.834110      0.657160     Biso  1.000000 C
   C95        1.0     0.441560      0.275670      0.342840     Biso  1.000000 C
   C96        1.0     0.558440      0.724330      0.657160     Biso  1.000000 C
   C97        1.0     0.382340      0.165580      0.163120     Biso  1.000000 C
   C98        1.0     0.617660      0.834420      0.836880     Biso  1.000000 C
   C99        1.0     0.834420      0.216760      0.163120     Biso  1.000000 C
   C100       1.0     0.165580      0.783240      0.836880     Biso  1.000000 C
   C101       1.0     0.783240      0.617660      0.163120     Biso  1.000000 C
   C102       1.0     0.216760      0.382340      0.836880     Biso  1.000000 C
   C103       1.0     0.617660      0.834420      0.163120     Biso  1.000000 C
   C104       1.0     0.382340      0.165580      0.836880     Biso  1.000000 C
   C105       1.0     0.165580      0.783240      0.163120     Biso  1.000000 C
   C106       1.0     0.834420      0.216760      0.836880     Biso  1.000000 C
   C107       1.0     0.216760      0.382340      0.163120     Biso  1.000000 C
   C108       1.0     0.783240      0.617660      0.836880     Biso  1.000000 C
   C109       1.0     0.165580      0.382340      0.336880     Biso  1.000000 C
   C110       1.0     0.834420      0.617660      0.663120     Biso  1.000000 C
   C111       1.0     0.216760      0.834420      0.336880     Biso  1.000000 C
   C112       1.0     0.783240      0.165580      0.663120     Biso  1.000000 C
   C113       1.0     0.617660      0.783240      0.336880     Biso  1.000000 C
   C114       1.0     0.382340      0.216760      0.663120     Biso  1.000000 C
   C115       1.0     0.834420      0.617660      0.336880     Biso  1.000000 C
   C116       1.0     0.165580      0.382340      0.663120     Biso  1.000000 C
   C117       1.0     0.783240      0.165580      0.336880     Biso  1.000000 C
   C118       1.0     0.216760      0.834420      0.663120     Biso  1.000000 C
   C119       1.0     0.382340      0.216760      0.336880     Biso  1.000000 C
   C120       1.0     0.617660      0.783240      0.663120     Biso  1.000000 C
   C121       1.0     0.369210      0.210110      0.145320     Biso  1.000000 C
   C122       1.0     0.630790      0.789890      0.854680     Biso  1.000000 C
   C123       1.0     0.789890      0.159100      0.145320     Biso  1.000000 C
   C124       1.0     0.210110      0.840900      0.854680     Biso  1.000000 C
   C125       1.0     0.840900      0.630790      0.145320     Biso  1.000000 C
   C126       1.0     0.159100      0.369210      0.854680     Biso  1.000000 C
   C127       1.0     0.630790      0.789890      0.145320     Biso  1.000000 C
   C128       1.0     0.369210      0.210110      0.854680     Biso  1.000000 C
   C129       1.0     0.210110      0.840900      0.145320     Biso  1.000000 C
   C130       1.0     0.789890      0.159100      0.854680     Biso  1.000000 C
   C131       1.0     0.159100      0.369210      0.145320     Biso  1.000000 C
   C132       1.0     0.840900      0.630790      0.854680     Biso  1.000000 C
   C133       1.0     0.210110      0.369210      0.354680     Biso  1.000000 C
   C134       1.0     0.789890      0.630790      0.645320     Biso  1.000000 C
   C135       1.0     0.159100      0.789890      0.354680     Biso  1.000000 C
   C136       1.0     0.840900      0.210110      0.645320     Biso  1.000000 C
   C137       1.0     0.630790      0.840900      0.354680     Biso  1.000000 C
   C138       1.0     0.369210      0.159100      0.645320     Biso  1.000000 C
   C139       1.0     0.789890      0.630790      0.354680     Biso  1.000000 C
   C140       1.0     0.210110      0.369210      0.645320     Biso  1.000000 C
   C141       1.0     0.840900      0.210110      0.354680     Biso  1.000000 C
   C142       1.0     0.159100      0.789890      0.645320     Biso  1.000000 C
   C143       1.0     0.369210      0.159100      0.354680     Biso  1.000000 C
   C144       1.0     0.630790      0.840900      0.645320     Biso  1.000000 C
   C145       1.0     0.415200      0.255960      0.121010     Biso  1.000000 C
   C146       1.0     0.584800      0.744040      0.878990     Biso  1.000000 C
   C147       1.0     0.744040      0.159240      0.121010     Biso  1.000000 C
   C148       1.0     0.255960      0.840760      0.878990     Biso  1.000000 C
   C149       1.0     0.840760      0.584800      0.121010     Biso  1.000000 C
   C150       1.0     0.159240      0.415200      0.878990     Biso  1.000000 C
   C151       1.0     0.584800      0.744040      0.121010     Biso  1.000000 C
   C152       1.0     0.415200      0.255960      0.878990     Biso  1.000000 C
   C153       1.0     0.255960      0.840760      0.121010     Biso  1.000000 C
   C154       1.0     0.744040      0.159240      0.878990     Biso  1.000000 C
   C155       1.0     0.159240      0.415200      0.121010     Biso  1.000000 C
   C156       1.0     0.840760      0.584800      0.878990     Biso  1.000000 C
   C157       1.0     0.255960      0.415200      0.378990     Biso  1.000000 C
   C158       1.0     0.744040      0.584800      0.621010     Biso  1.000000 C
   C159       1.0     0.159240      0.744040      0.378990     Biso  1.000000 C
   C160       1.0     0.840760      0.255960      0.621010     Biso  1.000000 C
   C161       1.0     0.584800      0.840760      0.378990     Biso  1.000000 C
   C162       1.0     0.415200      0.159240      0.621010     Biso  1.000000 C
   C163       1.0     0.744040      0.584800      0.378990     Biso  1.000000 C
   C164       1.0     0.255960      0.415200      0.621010     Biso  1.000000 C
   C165       1.0     0.840760      0.255960      0.378990     Biso  1.000000 C
   C166       1.0     0.159240      0.744040      0.621010     Biso  1.000000 C
   C167       1.0     0.415200      0.159240      0.378990     Biso  1.000000 C
   C168       1.0     0.584800      0.840760      0.621010     Biso  1.000000 C
   C169       1.0     0.289390      0.357590      0.075850     Biso  1.000000 C
   C170       1.0     0.710610      0.642410      0.924150     Biso  1.000000 C
   C171       1.0     0.642410      0.931800      0.075850     Biso  1.000000 C
   C172       1.0     0.357590      0.068200      0.924150     Biso  1.000000 C
   C173       1.0     0.068200      0.710610      0.075850     Biso  1.000000 C
   C174       1.0     0.931800      0.289390      0.924150     Biso  1.000000 C
   C175       1.0     0.710610      0.642410      0.075850     Biso  1.000000 C
   C176       1.0     0.289390      0.357590      0.924150     Biso  1.000000 C
   C177       1.0     0.357590      0.068200      0.075850     Biso  1.000000 C
   C178       1.0     0.642410      0.931800      0.924150     Biso  1.000000 C
   C179       1.0     0.931800      0.289390      0.075850     Biso  1.000000 C
   C180       1.0     0.068200      0.710610      0.924150     Biso  1.000000 C
   C181       1.0     0.357590      0.289390      0.424150     Biso  1.000000 C
   C182       1.0     0.642410      0.710610      0.575850     Biso  1.000000 C
   C183       1.0     0.931800      0.642410      0.424150     Biso  1.000000 C
   C184       1.0     0.068200      0.357590      0.575850     Biso  1.000000 C
   C185       1.0     0.710610      0.068200      0.424150     Biso  1.000000 C
   C186       1.0     0.289390      0.931800      0.575850     Biso  1.000000 C
   C187       1.0     0.642410      0.710610      0.424150     Biso  1.000000 C
   C188       1.0     0.357590      0.289390      0.575850     Biso  1.000000 C
   C189       1.0     0.068200      0.357590      0.424150     Biso  1.000000 C
   C190       1.0     0.931800      0.642410      0.575850     Biso  1.000000 C
   C191       1.0     0.289390      0.931800      0.424150     Biso  1.000000 C
   C192       1.0     0.710610      0.068200      0.575850     Biso  1.000000 C
   C193       1.0     0.286250      0.406020      0.055600     Biso  1.000000 C
   C194       1.0     0.713750      0.593980      0.944400     Biso  1.000000 C
   C195       1.0     0.593980      0.880230      0.055600     Biso  1.000000 C
   C196       1.0     0.406020      0.119770      0.944400     Biso  1.000000 C
   C197       1.0     0.119770      0.713750      0.055600     Biso  1.000000 C
   C198       1.0     0.880230      0.286250      0.944400     Biso  1.000000 C
   C199       1.0     0.713750      0.593980      0.055600     Biso  1.000000 C
   C200       1.0     0.286250      0.406020      0.944400     Biso  1.000000 C
   C201       1.0     0.406020      0.119770      0.055600     Biso  1.000000 C
   C202       1.0     0.593980      0.880230      0.944400     Biso  1.000000 C
   C203       1.0     0.880230      0.286250      0.055600     Biso  1.000000 C
   C204       1.0     0.119770      0.713750      0.944400     Biso  1.000000 C
   C205       1.0     0.406020      0.286250      0.444400     Biso  1.000000 C
   C206       1.0     0.593980      0.713750      0.555600     Biso  1.000000 C
   C207       1.0     0.880230      0.593980      0.444400     Biso  1.000000 C
   C208       1.0     0.119770      0.406020      0.555600     Biso  1.000000 C
   C209       1.0     0.713750      0.119770      0.444400     Biso  1.000000 C
   C210       1.0     0.286250      0.880230      0.555600     Biso  1.000000 C
   C211       1.0     0.593980      0.713750      0.444400     Biso  1.000000 C
   C212       1.0     0.406020      0.286250      0.555600     Biso  1.000000 C
   C213       1.0     0.119770      0.406020      0.444400     Biso  1.000000 C
   C214       1.0     0.880230      0.593980      0.555600     Biso  1.000000 C
   C215       1.0     0.286250      0.880230      0.444400     Biso  1.000000 C
   C216       1.0     0.713750      0.119770      0.555600     Biso  1.000000 C
   C217       1.0     0.343180      0.456820      0.039880     Biso  1.000000 C
   C218       1.0     0.656820      0.543180      0.960120     Biso  1.000000 C
   C219       1.0     0.543180      0.886360      0.039880     Biso  1.000000 C
   C220       1.0     0.456820      0.113640      0.960120     Biso  1.000000 C
   C221       1.0     0.113640      0.656820      0.039880     Biso  1.000000 C
   C222       1.0     0.886360      0.343180      0.960120     Biso  1.000000 C
   C223       1.0     0.656820      0.543180      0.039880     Biso  1.000000 C
   C224       1.0     0.343180      0.456820      0.960120     Biso  1.000000 C
   C225       1.0     0.456820      0.113640      0.039880     Biso  1.000000 C
   C226       1.0     0.543180      0.886360      0.960120     Biso  1.000000 C
   C227       1.0     0.886360      0.343180      0.039880     Biso  1.000000 C
   C228       1.0     0.113640      0.656820      0.960120     Biso  1.000000 C
   C229       1.0     0.456820      0.343180      0.460120     Biso  1.000000 C
   C230       1.0     0.543180      0.656820      0.539880     Biso  1.000000 C
   C231       1.0     0.886360      0.543180      0.460120     Biso  1.000000 C
   C232       1.0     0.113640      0.456820      0.539880     Biso  1.000000 C
   C233       1.0     0.656820      0.113640      0.460120     Biso  1.000000 C
   C234       1.0     0.343180      0.886360      0.539880     Biso  1.000000 C
   C235       1.0     0.543180      0.656820      0.460120     Biso  1.000000 C
   C236       1.0     0.456820      0.343180      0.539880     Biso  1.000000 C
   C237       1.0     0.113640      0.456820      0.460120     Biso  1.000000 C
   C238       1.0     0.886360      0.543180      0.539880     Biso  1.000000 C
   C239       1.0     0.343180      0.886360      0.460120     Biso  1.000000 C
   C240       1.0     0.656820      0.113640      0.539880     Biso  1.000000 C
   C241       1.0     0.403360      0.459410      0.044960     Biso  1.000000 C
   C242       1.0     0.596640      0.540590      0.955040     Biso  1.000000 C
   C243       1.0     0.540590      0.943950      0.044960     Biso  1.000000 C
   C244       1.0     0.459410      0.056050      0.955040     Biso  1.000000 C
   C245       1.0     0.056050      0.596640      0.044960     Biso  1.000000 C
   C246       1.0     0.943950      0.403360      0.955040     Biso  1.000000 C
   C247       1.0     0.596640      0.540590      0.044960     Biso  1.000000 C
   C248       1.0     0.403360      0.459410      0.955040     Biso  1.000000 C
   C249       1.0     0.459410      0.056050      0.044960     Biso  1.000000 C
   C250       1.0     0.540590      0.943950      0.955040     Biso  1.000000 C
   C251       1.0     0.943950      0.403360      0.044960     Biso  1.000000 C
   C252       1.0     0.056050      0.596640      0.955040     Biso  1.000000 C
   C253       1.0     0.459410      0.403360      0.455040     Biso  1.000000 C
   C254       1.0     0.540590      0.596640      0.544960     Biso  1.000000 C
   C255       1.0     0.943950      0.540590      0.455040     Biso  1.000000 C
   C256       1.0     0.056050      0.459410      0.544960     Biso  1.000000 C
   C257       1.0     0.596640      0.056050      0.455040     Biso  1.000000 C
   C258       1.0     0.403360      0.943950      0.544960     Biso  1.000000 C
   C259       1.0     0.540590      0.596640      0.455040     Biso  1.000000 C
   C260       1.0     0.459410      0.403360      0.544960     Biso  1.000000 C
   C261       1.0     0.056050      0.459410      0.455040     Biso  1.000000 C
   C262       1.0     0.943950      0.540590      0.544960     Biso  1.000000 C
   C263       1.0     0.403360      0.943950      0.455040     Biso  1.000000 C
   C264       1.0     0.596640      0.056050      0.544960     Biso  1.000000 C
   C265       1.0     0.406560      0.410850      0.064940     Biso  1.000000 C
   C266       1.0     0.593440      0.589150      0.935060     Biso  1.000000 C
   C267       1.0     0.589150      0.995710      0.064940     Biso  1.000000 C
   C268       1.0     0.410850      0.004290      0.935060     Biso  1.000000 C
   C269       1.0     0.004290      0.593440      0.064940     Biso  1.000000 C
   C270       1.0     0.995710      0.406560      0.935060     Biso  1.000000 C
   C271       1.0     0.593440      0.589150      0.064940     Biso  1.000000 C
   C272       1.0     0.406560      0.410850      0.935060     Biso  1.000000 C
   C273       1.0     0.410850      0.004290      0.064940     Biso  1.000000 C
   C274       1.0     0.589150      0.995710      0.935060     Biso  1.000000 C
   C275       1.0     0.995710      0.406560      0.064940     Biso  1.000000 C
   C276       1.0     0.004290      0.593440      0.935060     Biso  1.000000 C
   C277       1.0     0.410850      0.406560      0.435060     Biso  1.000000 C
   C278       1.0     0.589150      0.593440      0.564940     Biso  1.000000 C
   C279       1.0     0.995710      0.589150      0.435060     Biso  1.000000 C
   C280       1.0     0.004290      0.410850      0.564940     Biso  1.000000 C
   C281       1.0     0.593440      0.004290      0.435060     Biso  1.000000 C
   C282       1.0     0.406560      0.995710      0.564940     Biso  1.000000 C
   C283       1.0     0.589150      0.593440      0.435060     Biso  1.000000 C
   C284       1.0     0.410850      0.406560      0.564940     Biso  1.000000 C
   C285       1.0     0.004290      0.410850      0.435060     Biso  1.000000 C
   C286       1.0     0.995710      0.589150      0.564940     Biso  1.000000 C
   C287       1.0     0.406560      0.995710      0.435060     Biso  1.000000 C
   C288       1.0     0.593440      0.004290      0.564940     Biso  1.000000 C
   C289       1.0     0.349440      0.359240      0.080430     Biso  1.000000 C
   C290       1.0     0.650560      0.640760      0.919570     Biso  1.000000 C
   C291       1.0     0.640760      0.990200      0.080430     Biso  1.000000 C
   C292       1.0     0.359240      0.009800      0.919570     Biso  1.000000 C
   C293       1.0     0.009800      0.650560      0.080430     Biso  1.000000 C
   C294       1.0     0.990200      0.349440      0.919570     Biso  1.000000 C
   C295       1.0     0.650560      0.640760      0.080430     Biso  1.000000 C
   C296       1.0     0.349440      0.359240      0.919570     Biso  1.000000 C
   C297       1.0     0.359240      0.009800      0.080430     Biso  1.000000 C
   C298       1.0     0.640760      0.990200      0.919570     Biso  1.000000 C
   C299       1.0     0.990200      0.349440      0.080430     Biso  1.000000 C
   C300       1.0     0.009800      0.650560      0.919570     Biso  1.000000 C
   C301       1.0     0.359240      0.349440      0.419570     Biso  1.000000 C
   C302       1.0     0.640760      0.650560      0.580430     Biso  1.000000 C
   C303       1.0     0.990200      0.640760      0.419570     Biso  1.000000 C
   C304       1.0     0.009800      0.359240      0.580430     Biso  1.000000 C
   C305       1.0     0.650560      0.009800      0.419570     Biso  1.000000 C
   C306       1.0     0.349440      0.990200      0.580430     Biso  1.000000 C
   C307       1.0     0.640760      0.650560      0.419570     Biso  1.000000 C
   C308       1.0     0.359240      0.349440      0.580430     Biso  1.000000 C
   C309       1.0     0.009800      0.359240      0.419570     Biso  1.000000 C
   C310       1.0     0.990200      0.640760      0.580430     Biso  1.000000 C
   C311       1.0     0.349440      0.990200      0.419570     Biso  1.000000 C
   C312       1.0     0.650560      0.009800      0.580430     Biso  1.000000 C
   C313       1.0     0.335610      0.608780      0.019060     Biso  1.000000 C
   C314       1.0     0.664390      0.391220      0.980940     Biso  1.000000 C
   C315       1.0     0.391220      0.726830      0.019060     Biso  1.000000 C
   C316       1.0     0.608780      0.273170      0.980940     Biso  1.000000 C
   C317       1.0     0.273170      0.664390      0.019060     Biso  1.000000 C
   C318       1.0     0.726830      0.335610      0.980940     Biso  1.000000 C
   C319       1.0     0.664390      0.391220      0.019060     Biso  1.000000 C
   C320       1.0     0.335610      0.608780      0.980940     Biso  1.000000 C
   C321       1.0     0.608780      0.273170      0.019060     Biso  1.000000 C
   C322       1.0     0.391220      0.726830      0.980940     Biso  1.000000 C
   C323       1.0     0.726830      0.335610      0.019060     Biso  1.000000 C
   C324       1.0     0.273170      0.664390      0.980940     Biso  1.000000 C
   C325       1.0     0.608780      0.335610      0.480940     Biso  1.000000 C
   C326       1.0     0.391220      0.664390      0.519060     Biso  1.000000 C
   C327       1.0     0.726830      0.391220      0.480940     Biso  1.000000 C
   C328       1.0     0.273170      0.608780      0.519060     Biso  1.000000 C
   C329       1.0     0.664390      0.273170      0.480940     Biso  1.000000 C
   C330       1.0     0.335610      0.726830      0.519060     Biso  1.000000 C
   C331       1.0     0.391220      0.664390      0.480940     Biso  1.000000 C
   C332       1.0     0.608780      0.335610      0.519060     Biso  1.000000 C
   C333       1.0     0.273170      0.608780      0.480940     Biso  1.000000 C
   C334       1.0     0.726830      0.391220      0.519060     Biso  1.000000 C
   C335       1.0     0.335610      0.726830      0.480940     Biso  1.000000 C
   C336       1.0     0.664390      0.273170      0.519060     Biso  1.000000 C
   C337       1.0     0.340310      0.508610      0.019110     Biso  1.000000 C
   C338       1.0     0.659690      0.491390      0.980890     Biso  1.000000 C
   C339       1.0     0.491390      0.831700      0.019110     Biso  1.000000 C
   C340       1.0     0.508610      0.168300      0.980890     Biso  1.000000 C
   C341       1.0     0.168300      0.659690      0.019110     Biso  1.000000 C
   C342       1.0     0.831700      0.340310      0.980890     Biso  1.000000 C
   C343       1.0     0.659690      0.491390      0.019110     Biso  1.000000 C
   C344       1.0     0.340310      0.508610      0.980890     Biso  1.000000 C
   C345       1.0     0.508610      0.168300      0.019110     Biso  1.000000 C
   C346       1.0     0.491390      0.831700      0.980890     Biso  1.000000 C
   C347       1.0     0.831700      0.340310      0.019110     Biso  1.000000 C
   C348       1.0     0.168300      0.659690      0.980890     Biso  1.000000 C
   C349       1.0     0.508610      0.340310      0.480890     Biso  1.000000 C
   C350       1.0     0.491390      0.659690      0.519110     Biso  1.000000 C
   C351       1.0     0.831700      0.491390      0.480890     Biso  1.000000 C
   C352       1.0     0.168300      0.508610      0.519110     Biso  1.000000 C
   C353       1.0     0.659690      0.168300      0.480890     Biso  1.000000 C
   C354       1.0     0.340310      0.831700      0.519110     Biso  1.000000 C
   C355       1.0     0.491390      0.659690      0.480890     Biso  1.000000 C
   C356       1.0     0.508610      0.340310      0.519110     Biso  1.000000 C
   C357       1.0     0.168300      0.508610      0.480890     Biso  1.000000 C
   C358       1.0     0.831700      0.491390      0.519110     Biso  1.000000 C
   C359       1.0     0.340310      0.831700      0.480890     Biso  1.000000 C
   C360       1.0     0.659690      0.168300      0.519110     Biso  1.000000 C
   C361       1.0     0.407360      0.057720      0.187480     Biso  1.000000 C
   C362       1.0     0.592640      0.942280      0.812520     Biso  1.000000 C
   C363       1.0     0.942280      0.349640      0.187480     Biso  1.000000 C
   C364       1.0     0.057720      0.650360      0.812520     Biso  1.000000 C
   C365       1.0     0.650360      0.592640      0.187480     Biso  1.000000 C
   C366       1.0     0.349640      0.407360      0.812520     Biso  1.000000 C
   C367       1.0     0.592640      0.942280      0.187480     Biso  1.000000 C
   C368       1.0     0.407360      0.057720      0.812520     Biso  1.000000 C
   C369       1.0     0.057720      0.650360      0.187480     Biso  1.000000 C
   C370       1.0     0.942280      0.349640      0.812520     Biso  1.000000 C
   C371       1.0     0.349640      0.407360      0.187480     Biso  1.000000 C
   C372       1.0     0.650360      0.592640      0.812520     Biso  1.000000 C
   C373       1.0     0.057720      0.407360      0.312520     Biso  1.000000 C
   C374       1.0     0.942280      0.592640      0.687480     Biso  1.000000 C
   C375       1.0     0.349640      0.942280      0.312520     Biso  1.000000 C
   C376       1.0     0.650360      0.057720      0.687480     Biso  1.000000 C
   C377       1.0     0.592640      0.650360      0.312520     Biso  1.000000 C
   C378       1.0     0.407360      0.349640      0.687480     Biso  1.000000 C
   C379       1.0     0.942280      0.592640      0.312520     Biso  1.000000 C
   C380       1.0     0.057720      0.407360      0.687480     Biso  1.000000 C
   C381       1.0     0.650360      0.057720      0.312520     Biso  1.000000 C
   C382       1.0     0.349640      0.942280      0.687480     Biso  1.000000 C
   C383       1.0     0.407360      0.349640      0.312520     Biso  1.000000 C
   C384       1.0     0.592640      0.650360      0.687480     Biso  1.000000 C
   C385       1.0     0.421130      0.018500      0.209980     Biso  1.000000 C
   C386       1.0     0.578870      0.981500      0.790020     Biso  1.000000 C
   C387       1.0     0.981500      0.402630      0.209980     Biso  1.000000 C
   C388       1.0     0.018500      0.597370      0.790020     Biso  1.000000 C
   C389       1.0     0.597370      0.578870      0.209980     Biso  1.000000 C
   C390       1.0     0.402630      0.421130      0.790020     Biso  1.000000 C
   C391       1.0     0.578870      0.981500      0.209980     Biso  1.000000 C
   C392       1.0     0.421130      0.018500      0.790020     Biso  1.000000 C
   C393       1.0     0.018500      0.597370      0.209980     Biso  1.000000 C
   C394       1.0     0.981500      0.402630      0.790020     Biso  1.000000 C
   C395       1.0     0.402630      0.421130      0.209980     Biso  1.000000 C
   C396       1.0     0.597370      0.578870      0.790020     Biso  1.000000 C
   C397       1.0     0.018500      0.421130      0.290020     Biso  1.000000 C
   C398       1.0     0.981500      0.578870      0.709980     Biso  1.000000 C
   C399       1.0     0.402630      0.981500      0.290020     Biso  1.000000 C
   C400       1.0     0.597370      0.018500      0.709980     Biso  1.000000 C
   C401       1.0     0.578870      0.597370      0.290020     Biso  1.000000 C
   C402       1.0     0.421130      0.402630      0.709980     Biso  1.000000 C
   C403       1.0     0.981500      0.578870      0.290020     Biso  1.000000 C
   C404       1.0     0.018500      0.421130      0.709980     Biso  1.000000 C
   C405       1.0     0.597370      0.018500      0.290020     Biso  1.000000 C
   C406       1.0     0.402630      0.981500      0.709980     Biso  1.000000 C
   C407       1.0     0.421130      0.402630      0.290020     Biso  1.000000 C
   C408       1.0     0.578870      0.597370      0.709980     Biso  1.000000 C
   C409       1.0     0.484740      0.042090      0.224110     Biso  1.000000 C
   C410       1.0     0.515260      0.957910      0.775890     Biso  1.000000 C
   C411       1.0     0.957910      0.442650      0.224110     Biso  1.000000 C
   C412       1.0     0.042090      0.557350      0.775890     Biso  1.000000 C
   C413       1.0     0.557350      0.515260      0.224110     Biso  1.000000 C
   C414       1.0     0.442650      0.484740      0.775890     Biso  1.000000 C
   C415       1.0     0.515260      0.957910      0.224110     Biso  1.000000 C
   C416       1.0     0.484740      0.042090      0.775890     Biso  1.000000 C
   C417       1.0     0.042090      0.557350      0.224110     Biso  1.000000 C
   C418       1.0     0.957910      0.442650      0.775890     Biso  1.000000 C
   C419       1.0     0.442650      0.484740      0.224110     Biso  1.000000 C
   C420       1.0     0.557350      0.515260      0.775890     Biso  1.000000 C
   C421       1.0     0.042090      0.484740      0.275890     Biso  1.000000 C
   C422       1.0     0.957910      0.515260      0.724110     Biso  1.000000 C
   C423       1.0     0.442650      0.957910      0.275890     Biso  1.000000 C
   C424       1.0     0.557350      0.042090      0.724110     Biso  1.000000 C
   C425       1.0     0.515260      0.557350      0.275890     Biso  1.000000 C
   C426       1.0     0.484740      0.442650      0.724110     Biso  1.000000 C
   C427       1.0     0.957910      0.515260      0.275890     Biso  1.000000 C
   C428       1.0     0.042090      0.484740      0.724110     Biso  1.000000 C
   C429       1.0     0.557350      0.042090      0.275890     Biso  1.000000 C
   C430       1.0     0.442650      0.957910      0.724110     Biso  1.000000 C
   C431       1.0     0.484740      0.442650      0.275890     Biso  1.000000 C
   C432       1.0     0.515260      0.557350      0.724110     Biso  1.000000 C
   C433       1.0     0.535540      0.102210      0.210610     Biso  1.000000 C
   C434       1.0     0.464460      0.897790      0.789390     Biso  1.000000 C
   C435       1.0     0.897790      0.433330      0.210610     Biso  1.000000 C
   C436       1.0     0.102210      0.566670      0.789390     Biso  1.000000 C
   C437       1.0     0.566670      0.464460      0.210610     Biso  1.000000 C
   C438       1.0     0.433330      0.535540      0.789390     Biso  1.000000 C
   C439       1.0     0.464460      0.897790      0.210610     Biso  1.000000 C
   C440       1.0     0.535540      0.102210      0.789390     Biso  1.000000 C
   C441       1.0     0.102210      0.566670      0.210610     Biso  1.000000 C
   C442       1.0     0.897790      0.433330      0.789390     Biso  1.000000 C
   C443       1.0     0.433330      0.535540      0.210610     Biso  1.000000 C
   C444       1.0     0.566670      0.464460      0.789390     Biso  1.000000 C
   C445       1.0     0.102210      0.535540      0.289390     Biso  1.000000 C
   C446       1.0     0.897790      0.464460      0.710610     Biso  1.000000 C
   C447       1.0     0.433330      0.897790      0.289390     Biso  1.000000 C
   C448       1.0     0.566670      0.102210      0.710610     Biso  1.000000 C
   C449       1.0     0.464460      0.566670      0.289390     Biso  1.000000 C
   C450       1.0     0.535540      0.433330      0.710610     Biso  1.000000 C
   C451       1.0     0.897790      0.464460      0.289390     Biso  1.000000 C
   C452       1.0     0.102210      0.535540      0.710610     Biso  1.000000 C
   C453       1.0     0.566670      0.102210      0.289390     Biso  1.000000 C
   C454       1.0     0.433330      0.897790      0.710610     Biso  1.000000 C
   C455       1.0     0.535540      0.433330      0.289390     Biso  1.000000 C
   C456       1.0     0.464460      0.566670      0.710610     Biso  1.000000 C
   C457       1.0     0.521700      0.141940      0.188770     Biso  1.000000 C
   C458       1.0     0.478300      0.858060      0.811230     Biso  1.000000 C
   C459       1.0     0.858060      0.379760      0.188770     Biso  1.000000 C
   C460       1.0     0.141940      0.620240      0.811230     Biso  1.000000 C
   C461       1.0     0.620240      0.478300      0.188770     Biso  1.000000 C
   C462       1.0     0.379760      0.521700      0.811230     Biso  1.000000 C
   C463       1.0     0.478300      0.858060      0.188770     Biso  1.000000 C
   C464       1.0     0.521700      0.141940      0.811230     Biso  1.000000 C
   C465       1.0     0.141940      0.620240      0.188770     Biso  1.000000 C
   C466       1.0     0.858060      0.379760      0.811230     Biso  1.000000 C
   C467       1.0     0.379760      0.521700      0.188770     Biso  1.000000 C
   C468       1.0     0.620240      0.478300      0.811230     Biso  1.000000 C
   C469       1.0     0.141940      0.521700      0.311230     Biso  1.000000 C
   C470       1.0     0.858060      0.478300      0.688770     Biso  1.000000 C
   C471       1.0     0.379760      0.858060      0.311230     Biso  1.000000 C
   C472       1.0     0.620240      0.141940      0.688770     Biso  1.000000 C
   C473       1.0     0.478300      0.620240      0.311230     Biso  1.000000 C
   C474       1.0     0.521700      0.379760      0.688770     Biso  1.000000 C
   C475       1.0     0.858060      0.478300      0.311230     Biso  1.000000 C
   C476       1.0     0.141940      0.521700      0.688770     Biso  1.000000 C
   C477       1.0     0.620240      0.141940      0.311230     Biso  1.000000 C
   C478       1.0     0.379760      0.858060      0.688770     Biso  1.000000 C
   C479       1.0     0.521700      0.379760      0.311230     Biso  1.000000 C
   C480       1.0     0.478300      0.620240      0.688770     Biso  1.000000 C
   C481       1.0     0.457070      0.121040      0.177740     Biso  1.000000 C
   C482       1.0     0.542930      0.878960      0.822260     Biso  1.000000 C
   C483       1.0     0.878960      0.336030      0.177740     Biso  1.000000 C
   C484       1.0     0.121040      0.663970      0.822260     Biso  1.000000 C
   C485       1.0     0.663970      0.542930      0.177740     Biso  1.000000 C
   C486       1.0     0.336030      0.457070      0.822260     Biso  1.000000 C
   C487       1.0     0.542930      0.878960      0.177740     Biso  1.000000 C
   C488       1.0     0.457070      0.121040      0.822260     Biso  1.000000 C
   C489       1.0     0.121040      0.663970      0.177740     Biso  1.000000 C
   C490       1.0     0.878960      0.336030      0.822260     Biso  1.000000 C
   C491       1.0     0.336030      0.457070      0.177740     Biso  1.000000 C
   C492       1.0     0.663970      0.542930      0.822260     Biso  1.000000 C
   C493       1.0     0.121040      0.457070      0.322260     Biso  1.000000 C
   C494       1.0     0.878960      0.542930      0.677740     Biso  1.000000 C
   C495       1.0     0.336030      0.878960      0.322260     Biso  1.000000 C
   C496       1.0     0.663970      0.121040      0.677740     Biso  1.000000 C
   C497       1.0     0.542930      0.663970      0.322260     Biso  1.000000 C
   C498       1.0     0.457070      0.336030      0.677740     Biso  1.000000 C
   C499       1.0     0.878960      0.542930      0.322260     Biso  1.000000 C
   C500       1.0     0.121040      0.457070      0.677740     Biso  1.000000 C
   C501       1.0     0.663970      0.121040      0.322260     Biso  1.000000 C
   C502       1.0     0.336030      0.878960      0.677740     Biso  1.000000 C
   C503       1.0     0.457070      0.336030      0.322260     Biso  1.000000 C
   C504       1.0     0.542930      0.663970      0.677740     Biso  1.000000 C
   C505       1.0     0.440840      0.661840      0.538020     Biso  1.000000 C
   C506       1.0     0.559160      0.338160      0.461980     Biso  1.000000 C
   C507       1.0     0.338160      0.779000      0.538020     Biso  1.000000 C
   C508       1.0     0.661840      0.221000      0.461980     Biso  1.000000 C
   C509       1.0     0.221000      0.559160      0.538020     Biso  1.000000 C
   C510       1.0     0.779000      0.440840      0.461980     Biso  1.000000 C
   C511       1.0     0.559160      0.338160      0.538020     Biso  1.000000 C
   C512       1.0     0.440840      0.661840      0.461980     Biso  1.000000 C
   C513       1.0     0.661840      0.221000      0.538020     Biso  1.000000 C
   C514       1.0     0.338160      0.779000      0.461980     Biso  1.000000 C
   C515       1.0     0.779000      0.440840      0.538020     Biso  1.000000 C
   C516       1.0     0.221000      0.559160      0.461980     Biso  1.000000 C
   C517       1.0     0.661840      0.440840      0.961980     Biso  1.000000 C
   C518       1.0     0.338160      0.559160      0.038020     Biso  1.000000 C
   C519       1.0     0.779000      0.338160      0.961980     Biso  1.000000 C
   C520       1.0     0.221000      0.661840      0.038020     Biso  1.000000 C
   C521       1.0     0.559160      0.221000      0.961980     Biso  1.000000 C
   C522       1.0     0.440840      0.779000      0.038020     Biso  1.000000 C
   C523       1.0     0.338160      0.559160      0.961980     Biso  1.000000 C
   C524       1.0     0.661840      0.440840      0.038020     Biso  1.000000 C
   C525       1.0     0.221000      0.661840      0.961980     Biso  1.000000 C
   C526       1.0     0.779000      0.338160      0.038020     Biso  1.000000 C
   C527       1.0     0.440840      0.779000      0.961980     Biso  1.000000 C
   C528       1.0     0.559160      0.221000      0.038020     Biso  1.000000 C
   C529       1.0     0.000000      0.500000      0.250000     Biso  1.000000 C
   C530       1.0     0.000000      0.500000      0.750000     Biso  1.000000 C
   C531       1.0     0.500000      0.500000      0.250000     Biso  1.000000 C
   C532       1.0     0.500000      0.500000      0.750000     Biso  1.000000 C
   C533       1.0     0.500000      0.000000      0.250000     Biso  1.000000 C
   C534       1.0     0.500000      0.000000      0.750000     Biso  1.000000 C
   C535       1.0     0.333333      0.666667      0.535970     Biso  1.000000 C
   C536       1.0     0.666667      0.333333      0.464030     Biso  1.000000 C
   C537       1.0     0.666667      0.333333      0.535970     Biso  1.000000 C
   C538       1.0     0.333333      0.666667      0.464030     Biso  1.000000 C
   C539       1.0     0.666667      0.333333      0.964030     Biso  1.000000 C
   C540       1.0     0.333333      0.666667      0.035970     Biso  1.000000 C
   C541       1.0     0.333333      0.666667      0.964030     Biso  1.000000 C
   C542       1.0     0.666667      0.333333      0.035970     Biso  1.000000 C
   N1         1.0     0.405360      0.304010      0.102540     Biso  1.000000 N
   N2         1.0     0.594640      0.695990      0.897460     Biso  1.000000 N
   N3         1.0     0.695990      0.101350      0.102540     Biso  1.000000 N
   N4         1.0     0.304010      0.898650      0.897460     Biso  1.000000 N
   N5         1.0     0.898650      0.594640      0.102540     Biso  1.000000 N
   N6         1.0     0.101350      0.405360      0.897460     Biso  1.000000 N
   N7         1.0     0.594640      0.695990      0.102540     Biso  1.000000 N
   N8         1.0     0.405360      0.304010      0.897460     Biso  1.000000 N
   N9         1.0     0.304010      0.898650      0.102540     Biso  1.000000 N
   N10        1.0     0.695990      0.101350      0.897460     Biso  1.000000 N
   N11        1.0     0.101350      0.405360      0.102540     Biso  1.000000 N
   N12        1.0     0.898650      0.594640      0.897460     Biso  1.000000 N
   N13        1.0     0.304010      0.405360      0.397460     Biso  1.000000 N
   N14        1.0     0.695990      0.594640      0.602540     Biso  1.000000 N
   N15        1.0     0.101350      0.695990      0.397460     Biso  1.000000 N
   N16        1.0     0.898650      0.304010      0.602540     Biso  1.000000 N
   N17        1.0     0.594640      0.898650      0.397460     Biso  1.000000 N
   N18        1.0     0.405360      0.101350      0.602540     Biso  1.000000 N
   N19        1.0     0.695990      0.594640      0.397460     Biso  1.000000 N
   N20        1.0     0.304010      0.405360      0.602540     Biso  1.000000 N
   N21        1.0     0.898650      0.304010      0.397460     Biso  1.000000 N
   N22        1.0     0.101350      0.695990      0.602540     Biso  1.000000 N
   N23        1.0     0.405360      0.101350      0.397460     Biso  1.000000 N
   N24        1.0     0.594640      0.898650      0.602540     Biso  1.000000 N
   F1         1.0     0.533030      0.213280      0.127420     Biso  1.000000 F
   F2         1.0     0.466970      0.786720      0.872580     Biso  1.000000 F
   F3         1.0     0.786720      0.319750      0.127420     Biso  1.000000 F
   F4         1.0     0.213280      0.680250      0.872580     Biso  1.000000 F
   F5         1.0     0.680250      0.466970      0.127420     Biso  1.000000 F
   F6         1.0     0.319750      0.533030      0.872580     Biso  1.000000 F
   F7         1.0     0.466970      0.786720      0.127420     Biso  1.000000 F
   F8         1.0     0.533030      0.213280      0.872580     Biso  1.000000 F
   F9         1.0     0.213280      0.680250      0.127420     Biso  1.000000 F
   F10        1.0     0.786720      0.319750      0.872580     Biso  1.000000 F
   F11        1.0     0.319750      0.533030      0.127420     Biso  1.000000 F
   F12        1.0     0.680250      0.466970      0.872580     Biso  1.000000 F
   F13        1.0     0.213280      0.533030      0.372580     Biso  1.000000 F
   F14        1.0     0.786720      0.466970      0.627420     Biso  1.000000 F
   F15        1.0     0.319750      0.786720      0.372580     Biso  1.000000 F
   F16        1.0     0.680250      0.213280      0.627420     Biso  1.000000 F
   F17        1.0     0.466970      0.680250      0.372580     Biso  1.000000 F
   F18        1.0     0.533030      0.319750      0.627420     Biso  1.000000 F
   F19        1.0     0.786720      0.466970      0.372580     Biso  1.000000 F
   F20        1.0     0.213280      0.533030      0.627420     Biso  1.000000 F
   F21        1.0     0.680250      0.213280      0.372580     Biso  1.000000 F
   F22        1.0     0.319750      0.786720      0.627420     Biso  1.000000 F
   F23        1.0     0.533030      0.319750      0.372580     Biso  1.000000 F
   F24        1.0     0.466970      0.680250      0.627420     Biso  1.000000 F
