#======================================================================

# CRYSTAL DATA

#----------------------------------------------------------------------

data_VESTA_phase_1


_chemical_name_common                  ''
_cell_length_a                         22.95190
_cell_length_b                         22.95190
_cell_length_c                         39.79940
_cell_angle_alpha                      90
_cell_angle_beta                       90
_cell_angle_gamma                      120
_space_group_name_H-M_alt              'P 1'
_space_group_IT_number                 1

loop_
_space_group_symop_operation_xyz
   'x, y, z'

loop_
   _atom_site_label
   _atom_site_occupancy
   _atom_site_fract_x
   _atom_site_fract_y
   _atom_site_fract_z
   _atom_site_adp_type
   _atom_site_B_iso_or_equiv
   _atom_site_type_symbol
   H1         1.0     0.301930      0.263380      0.111620     Biso  1.000000 H
   H2         1.0     0.698070      0.736620      0.888380     Biso  1.000000 H
   H3         1.0     0.736620      0.038550      0.111620     Biso  1.000000 H
   H4         1.0     0.263380      0.961450      0.888380     Biso  1.000000 H
   H5         1.0     0.961450      0.698070      0.111620     Biso  1.000000 H
   H6         1.0     0.038550      0.301930      0.888380     Biso  1.000000 H
   H7         1.0     0.698070      0.736620      0.111620     Biso  1.000000 H
   H8         1.0     0.301930      0.263380      0.888380     Biso  1.000000 H
   H9         1.0     0.263380      0.961450      0.111620     Biso  1.000000 H
   H10        1.0     0.736620      0.038550      0.888380     Biso  1.000000 H
   H11        1.0     0.038550      0.301930      0.111620     Biso  1.000000 H
   H12        1.0     0.961450      0.698070      0.888380     Biso  1.000000 H
   H13        1.0     0.263380      0.301930      0.388380     Biso  1.000000 H
   H14        1.0     0.736620      0.698070      0.611620     Biso  1.000000 H
   H15        1.0     0.038550      0.736620      0.388380     Biso  1.000000 H
   H16        1.0     0.961450      0.263380      0.611620     Biso  1.000000 H
   H17        1.0     0.698070      0.961450      0.388380     Biso  1.000000 H
   H18        1.0     0.301930      0.038550      0.611620     Biso  1.000000 H
   H19        1.0     0.736620      0.698070      0.388380     Biso  1.000000 H
   H20        1.0     0.263380      0.301930      0.611620     Biso  1.000000 H
   H21        1.0     0.961450      0.263380      0.388380     Biso  1.000000 H
   H22        1.0     0.038550      0.736620      0.611620     Biso  1.000000 H
   H23        1.0     0.301930      0.038550      0.388380     Biso  1.000000 H
   H24        1.0     0.698070      0.961450      0.611620     Biso  1.000000 H
   H25        1.0     0.503890      0.275780      0.093800     Biso  1.000000 H
   H26        1.0     0.496110      0.724220      0.906200     Biso  1.000000 H
   H27        1.0     0.724220      0.228110      0.093800     Biso  1.000000 H
   H28        1.0     0.275780      0.771890      0.906200     Biso  1.000000 H
   H29        1.0     0.771890      0.496110      0.093800     Biso  1.000000 H
   H30        1.0     0.228110      0.503890      0.906200     Biso  1.000000 H
   H31        1.0     0.496110      0.724220      0.093800     Biso  1.000000 H
   H32        1.0     0.503890      0.275780      0.906200     Biso  1.000000 H
   H33        1.0     0.275780      0.771890      0.093800     Biso  1.000000 H
   H34        1.0     0.724220      0.228110      0.906200     Biso  1.000000 H
   H35        1.0     0.228110      0.503890      0.093800     Biso  1.000000 H
   H36        1.0     0.771890      0.496110      0.906200     Biso  1.000000 H
   H37        1.0     0.275780      0.503890      0.406200     Biso  1.000000 H
   H38        1.0     0.724220      0.496110      0.593800     Biso  1.000000 H
   H39        1.0     0.228110      0.724220      0.406200     Biso  1.000000 H
   H40        1.0     0.771890      0.275780      0.593800     Biso  1.000000 H
   H41        1.0     0.496110      0.771890      0.406200     Biso  1.000000 H
   H42        1.0     0.503890      0.228110      0.593800     Biso  1.000000 H
   H43        1.0     0.724220      0.496110      0.406200     Biso  1.000000 H
   H44        1.0     0.275780      0.503890      0.593800     Biso  1.000000 H
   H45        1.0     0.771890      0.275780      0.406200     Biso  1.000000 H
   H46        1.0     0.228110      0.724220      0.593800     Biso  1.000000 H
   H47        1.0     0.503890      0.228110      0.406200     Biso  1.000000 H
   H48        1.0     0.496110      0.771890      0.593800     Biso  1.000000 H
   H49        1.0     0.349340      0.140500      0.185630     Biso  1.000000 H
   H50        1.0     0.650660      0.859500      0.814370     Biso  1.000000 H
   H51        1.0     0.859500      0.208840      0.185630     Biso  1.000000 H
   H52        1.0     0.140500      0.791160      0.814370     Biso  1.000000 H
   H53        1.0     0.791160      0.650660      0.185630     Biso  1.000000 H
   H54        1.0     0.208840      0.349340      0.814370     Biso  1.000000 H
   H55        1.0     0.650660      0.859500      0.185630     Biso  1.000000 H
   H56        1.0     0.349340      0.140500      0.814370     Biso  1.000000 H
   H57        1.0     0.140500      0.791160      0.185630     Biso  1.000000 H
   H58        1.0     0.859500      0.208840      0.814370     Biso  1.000000 H
   H59        1.0     0.208840      0.349340      0.185630     Biso  1.000000 H
   H60        1.0     0.791160      0.650660      0.814370     Biso  1.000000 H
   H61        1.0     0.140500      0.349340      0.314370     Biso  1.000000 H
   H62        1.0     0.859500      0.650660      0.685630     Biso  1.000000 H
   H63        1.0     0.208840      0.859500      0.314370     Biso  1.000000 H
   H64        1.0     0.791160      0.140500      0.685630     Biso  1.000000 H
   H65        1.0     0.650660      0.791160      0.314370     Biso  1.000000 H
   H66        1.0     0.349340      0.208840      0.685630     Biso  1.000000 H
   H67        1.0     0.859500      0.650660      0.314370     Biso  1.000000 H
   H68        1.0     0.140500      0.349340      0.685630     Biso  1.000000 H
   H69        1.0     0.791160      0.140500      0.314370     Biso  1.000000 H
   H70        1.0     0.208840      0.859500      0.685630     Biso  1.000000 H
   H71        1.0     0.349340      0.208840      0.314370     Biso  1.000000 H
   H72        1.0     0.650660      0.791160      0.685630     Biso  1.000000 H
   H73        1.0     0.325460      0.215580      0.153080     Biso  1.000000 H
   H74        1.0     0.674540      0.784420      0.846920     Biso  1.000000 H
   H75        1.0     0.784420      0.109880      0.153080     Biso  1.000000 H
   H76        1.0     0.215580      0.890120      0.846920     Biso  1.000000 H
   H77        1.0     0.890120      0.674540      0.153080     Biso  1.000000 H
   H78        1.0     0.109880      0.325460      0.846920     Biso  1.000000 H
   H79        1.0     0.674540      0.784420      0.153080     Biso  1.000000 H
   H80        1.0     0.325460      0.215580      0.846920     Biso  1.000000 H
   H81        1.0     0.215580      0.890120      0.153080     Biso  1.000000 H
   H82        1.0     0.784420      0.109880      0.846920     Biso  1.000000 H
   H83        1.0     0.109880      0.325460      0.153080     Biso  1.000000 H
   H84        1.0     0.890120      0.674540      0.846920     Biso  1.000000 H
   H85        1.0     0.215580      0.325460      0.346920     Biso  1.000000 H
   H86        1.0     0.784420      0.674540      0.653080     Biso  1.000000 H
   H87        1.0     0.109880      0.784420      0.346920     Biso  1.000000 H
   H88        1.0     0.890120      0.215580      0.653080     Biso  1.000000 H
   H89        1.0     0.674540      0.890120      0.346920     Biso  1.000000 H
   H90        1.0     0.325460      0.109880      0.653080     Biso  1.000000 H
   H91        1.0     0.784420      0.674540      0.346920     Biso  1.000000 H
   H92        1.0     0.215580      0.325460      0.653080     Biso  1.000000 H
   H93        1.0     0.890120      0.215580      0.346920     Biso  1.000000 H
   H94        1.0     0.109880      0.784420      0.653080     Biso  1.000000 H
   H95        1.0     0.325460      0.109880      0.346920     Biso  1.000000 H
   H96        1.0     0.674540      0.890120      0.653080     Biso  1.000000 H
   H97        1.0     0.232250      0.397550      0.050100     Biso  1.000000 H
   H98        1.0     0.767750      0.602450      0.949900     Biso  1.000000 H
   H99        1.0     0.602450      0.834700      0.050100     Biso  1.000000 H
   H100       1.0     0.397550      0.165300      0.949900     Biso  1.000000 H
   H101       1.0     0.165300      0.767750      0.050100     Biso  1.000000 H
   H102       1.0     0.834700      0.232250      0.949900     Biso  1.000000 H
   H103       1.0     0.767750      0.602450      0.050100     Biso  1.000000 H
   H104       1.0     0.232250      0.397550      0.949900     Biso  1.000000 H
   H105       1.0     0.397550      0.165300      0.050100     Biso  1.000000 H
   H106       1.0     0.602450      0.834700      0.949900     Biso  1.000000 H
   H107       1.0     0.834700      0.232250      0.050100     Biso  1.000000 H
   H108       1.0     0.165300      0.767750      0.949900     Biso  1.000000 H
   H109       1.0     0.397550      0.232250      0.449900     Biso  1.000000 H
   H110       1.0     0.602450      0.767750      0.550100     Biso  1.000000 H
   H111       1.0     0.834700      0.602450      0.449900     Biso  1.000000 H
   H112       1.0     0.165300      0.397550      0.550100     Biso  1.000000 H
   H113       1.0     0.767750      0.165300      0.449900     Biso  1.000000 H
   H114       1.0     0.232250      0.834700      0.550100     Biso  1.000000 H
   H115       1.0     0.602450      0.767750      0.449900     Biso  1.000000 H
   H116       1.0     0.397550      0.232250      0.550100     Biso  1.000000 H
   H117       1.0     0.165300      0.397550      0.449900     Biso  1.000000 H
   H118       1.0     0.834700      0.602450      0.550100     Biso  1.000000 H
   H119       1.0     0.232250      0.834700      0.449900     Biso  1.000000 H
   H120       1.0     0.767750      0.165300      0.550100     Biso  1.000000 H
   H121       1.0     0.444480      0.490340      0.030750     Biso  1.000000 H
   H122       1.0     0.555520      0.509660      0.969250     Biso  1.000000 H
   H123       1.0     0.509660      0.954140      0.030750     Biso  1.000000 H
   H124       1.0     0.490340      0.045860      0.969250     Biso  1.000000 H
   H125       1.0     0.045860      0.555520      0.030750     Biso  1.000000 H
   H126       1.0     0.954140      0.444480      0.969250     Biso  1.000000 H
   H127       1.0     0.555520      0.509660      0.030750     Biso  1.000000 H
   H128       1.0     0.444480      0.490340      0.969250     Biso  1.000000 H
   H129       1.0     0.490340      0.045860      0.030750     Biso  1.000000 H
   H130       1.0     0.509660      0.954140      0.969250     Biso  1.000000 H
   H131       1.0     0.954140      0.444480      0.030750     Biso  1.000000 H
   H132       1.0     0.045860      0.555520      0.969250     Biso  1.000000 H
   H133       1.0     0.490340      0.444480      0.469250     Biso  1.000000 H
   H134       1.0     0.509660      0.555520      0.530750     Biso  1.000000 H
   H135       1.0     0.954140      0.509660      0.469250     Biso  1.000000 H
   H136       1.0     0.045860      0.490340      0.530750     Biso  1.000000 H
   H137       1.0     0.555520      0.045860      0.469250     Biso  1.000000 H
   H138       1.0     0.444480      0.954140      0.530750     Biso  1.000000 H
   H139       1.0     0.509660      0.555520      0.469250     Biso  1.000000 H
   H140       1.0     0.490340      0.444480      0.530750     Biso  1.000000 H
   H141       1.0     0.045860      0.490340      0.469250     Biso  1.000000 H
   H142       1.0     0.954140      0.509660      0.530750     Biso  1.000000 H
   H143       1.0     0.444480      0.954140      0.469250     Biso  1.000000 H
   H144       1.0     0.555520      0.045860      0.530750     Biso  1.000000 H
   H145       1.0     0.450470      0.404880      0.065030     Biso  1.000000 H
   H146       1.0     0.549530      0.595120      0.934970     Biso  1.000000 H
   H147       1.0     0.595120      0.045590      0.065030     Biso  1.000000 H
   H148       1.0     0.404880      0.954410      0.934970     Biso  1.000000 H
   H149       1.0     0.954410      0.549530      0.065030     Biso  1.000000 H
   H150       1.0     0.045590      0.450470      0.934970     Biso  1.000000 H
   H151       1.0     0.549530      0.595120      0.065030     Biso  1.000000 H
   H152       1.0     0.450470      0.404880      0.934970     Biso  1.000000 H
   H153       1.0     0.404880      0.954410      0.065030     Biso  1.000000 H
   H154       1.0     0.595120      0.045590      0.934970     Biso  1.000000 H
   H155       1.0     0.045590      0.450470      0.065030     Biso  1.000000 H
   H156       1.0     0.954410      0.549530      0.934970     Biso  1.000000 H
   H157       1.0     0.404880      0.450470      0.434970     Biso  1.000000 H
   H158       1.0     0.595120      0.549530      0.565030     Biso  1.000000 H
   H159       1.0     0.045590      0.595120      0.434970     Biso  1.000000 H
   H160       1.0     0.954410      0.404880      0.565030     Biso  1.000000 H
   H161       1.0     0.549530      0.954410      0.434970     Biso  1.000000 H
   H162       1.0     0.450470      0.045590      0.565030     Biso  1.000000 H
   H163       1.0     0.595120      0.549530      0.434970     Biso  1.000000 H
   H164       1.0     0.404880      0.450470      0.565030     Biso  1.000000 H
   H165       1.0     0.954410      0.404880      0.434970     Biso  1.000000 H
   H166       1.0     0.045590      0.595120      0.565030     Biso  1.000000 H
   H167       1.0     0.450470      0.045590      0.434970     Biso  1.000000 H
   H168       1.0     0.549530      0.954410      0.565030     Biso  1.000000 H
   H169       1.0     0.354160      0.036000      0.180710     Biso  1.000000 H
   H170       1.0     0.645840      0.964000      0.819290     Biso  1.000000 H
   H171       1.0     0.964000      0.318160      0.180710     Biso  1.000000 H
   H172       1.0     0.036000      0.681840      0.819290     Biso  1.000000 H
   H173       1.0     0.681840      0.645840      0.180710     Biso  1.000000 H
   H174       1.0     0.318160      0.354160      0.819290     Biso  1.000000 H
   H175       1.0     0.645840      0.964000      0.180710     Biso  1.000000 H
   H176       1.0     0.354160      0.036000      0.819290     Biso  1.000000 H
   H177       1.0     0.036000      0.681840      0.180710     Biso  1.000000 H
   H178       1.0     0.964000      0.318160      0.819290     Biso  1.000000 H
   H179       1.0     0.318160      0.354160      0.180710     Biso  1.000000 H
   H180       1.0     0.681840      0.645840      0.819290     Biso  1.000000 H
   H181       1.0     0.036000      0.354160      0.319290     Biso  1.000000 H
   H182       1.0     0.964000      0.645840      0.680710     Biso  1.000000 H
   H183       1.0     0.318160      0.964000      0.319290     Biso  1.000000 H
   H184       1.0     0.681840      0.036000      0.680710     Biso  1.000000 H
   H185       1.0     0.645840      0.681840      0.319290     Biso  1.000000 H
   H186       1.0     0.354160      0.318160      0.680710     Biso  1.000000 H
   H187       1.0     0.964000      0.645840      0.319290     Biso  1.000000 H
   H188       1.0     0.036000      0.354160      0.680710     Biso  1.000000 H
   H189       1.0     0.681840      0.036000      0.319290     Biso  1.000000 H
   H190       1.0     0.318160      0.964000      0.680710     Biso  1.000000 H
   H191       1.0     0.354160      0.318160      0.319290     Biso  1.000000 H
   H192       1.0     0.645840      0.681840      0.680710     Biso  1.000000 H
   H193       1.0     0.378550      0.968290      0.219080     Biso  1.000000 H
   H194       1.0     0.621450      0.031710      0.780920     Biso  1.000000 H
   H195       1.0     0.031710      0.410260      0.219080     Biso  1.000000 H
   H196       1.0     0.968290      0.589740      0.780920     Biso  1.000000 H
   H197       1.0     0.589740      0.621450      0.219080     Biso  1.000000 H
   H198       1.0     0.410260      0.378550      0.780920     Biso  1.000000 H
   H199       1.0     0.621450      0.031710      0.219080     Biso  1.000000 H
   H200       1.0     0.378550      0.968290      0.780920     Biso  1.000000 H
   H201       1.0     0.968290      0.589740      0.219080     Biso  1.000000 H
   H202       1.0     0.031710      0.410260      0.780920     Biso  1.000000 H
   H203       1.0     0.410260      0.378550      0.219080     Biso  1.000000 H
   H204       1.0     0.589740      0.621450      0.780920     Biso  1.000000 H
   H205       1.0     0.968290      0.378550      0.280920     Biso  1.000000 H
   H206       1.0     0.031710      0.621450      0.719080     Biso  1.000000 H
   H207       1.0     0.410260      0.031710      0.280920     Biso  1.000000 H
   H208       1.0     0.589740      0.968290      0.719080     Biso  1.000000 H
   H209       1.0     0.621450      0.589740      0.280920     Biso  1.000000 H
   H210       1.0     0.378550      0.410260      0.719080     Biso  1.000000 H
   H211       1.0     0.031710      0.621450      0.280920     Biso  1.000000 H
   H212       1.0     0.968290      0.378550      0.719080     Biso  1.000000 H
   H213       1.0     0.589740      0.968290      0.280920     Biso  1.000000 H
   H214       1.0     0.410260      0.031710      0.719080     Biso  1.000000 H
   H215       1.0     0.378550      0.410260      0.280920     Biso  1.000000 H
   H216       1.0     0.621450      0.589740      0.719080     Biso  1.000000 H
   H217       1.0     0.587890      0.123530      0.220330     Biso  1.000000 H
   H218       1.0     0.412110      0.876470      0.779670     Biso  1.000000 H
   H219       1.0     0.876470      0.464360      0.220330     Biso  1.000000 H
   H220       1.0     0.123530      0.535640      0.779670     Biso  1.000000 H
   H221       1.0     0.535640      0.412110      0.220330     Biso  1.000000 H
   H222       1.0     0.464360      0.587890      0.779670     Biso  1.000000 H
   H223       1.0     0.412110      0.876470      0.220330     Biso  1.000000 H
   H224       1.0     0.587890      0.123530      0.779670     Biso  1.000000 H
   H225       1.0     0.123530      0.535640      0.220330     Biso  1.000000 H
   H226       1.0     0.876470      0.464360      0.779670     Biso  1.000000 H
   H227       1.0     0.464360      0.587890      0.220330     Biso  1.000000 H
   H228       1.0     0.535640      0.412110      0.779670     Biso  1.000000 H
   H229       1.0     0.123530      0.587890      0.279670     Biso  1.000000 H
   H230       1.0     0.876470      0.412110      0.720330     Biso  1.000000 H
   H231       1.0     0.464360      0.876470      0.279670     Biso  1.000000 H
   H232       1.0     0.535640      0.123530      0.720330     Biso  1.000000 H
   H233       1.0     0.412110      0.535640      0.279670     Biso  1.000000 H
   H234       1.0     0.587890      0.464360      0.720330     Biso  1.000000 H
   H235       1.0     0.876470      0.412110      0.279670     Biso  1.000000 H
   H236       1.0     0.123530      0.587890      0.720330     Biso  1.000000 H
   H237       1.0     0.535640      0.123530      0.279670     Biso  1.000000 H
   H238       1.0     0.464360      0.876470      0.720330     Biso  1.000000 H
   H239       1.0     0.587890      0.464360      0.279670     Biso  1.000000 H
   H240       1.0     0.412110      0.535640      0.720330     Biso  1.000000 H
   H241       1.0     0.562510      0.192660      0.184130     Biso  1.000000 H
   H242       1.0     0.437490      0.807340      0.815870     Biso  1.000000 H
   H243       1.0     0.807340      0.369850      0.184130     Biso  1.000000 H
   H244       1.0     0.192660      0.630150      0.815870     Biso  1.000000 H
   H245       1.0     0.630150      0.437490      0.184130     Biso  1.000000 H
   H246       1.0     0.369850      0.562510      0.815870     Biso  1.000000 H
   H247       1.0     0.437490      0.807340      0.184130     Biso  1.000000 H
   H248       1.0     0.562510      0.192660      0.815870     Biso  1.000000 H
   H249       1.0     0.192660      0.630150      0.184130     Biso  1.000000 H
   H250       1.0     0.807340      0.369850      0.815870     Biso  1.000000 H
   H251       1.0     0.369850      0.562510      0.184130     Biso  1.000000 H
   H252       1.0     0.630150      0.437490      0.815870     Biso  1.000000 H
   H253       1.0     0.192660      0.562510      0.315870     Biso  1.000000 H
   H254       1.0     0.807340      0.437490      0.684130     Biso  1.000000 H
   H255       1.0     0.369850      0.807340      0.315870     Biso  1.000000 H
   H256       1.0     0.630150      0.192660      0.684130     Biso  1.000000 H
   H257       1.0     0.437490      0.630150      0.315870     Biso  1.000000 H
   H258       1.0     0.562510      0.369850      0.684130     Biso  1.000000 H
   H259       1.0     0.807340      0.437490      0.315870     Biso  1.000000 H
   H260       1.0     0.192660      0.562510      0.684130     Biso  1.000000 H
   H261       1.0     0.630150      0.192660      0.315870     Biso  1.000000 H
   H262       1.0     0.369850      0.807340      0.684130     Biso  1.000000 H
   H263       1.0     0.562510      0.369850      0.315870     Biso  1.000000 H
   H264       1.0     0.437490      0.630150      0.684130     Biso  1.000000 H
   H265       1.0     0.444260      0.664330      0.562590     Biso  1.000000 H
   H266       1.0     0.555740      0.335670      0.437410     Biso  1.000000 H
   H267       1.0     0.335670      0.779930      0.562590     Biso  1.000000 H
   H268       1.0     0.664330      0.220070      0.437410     Biso  1.000000 H
   H269       1.0     0.220070      0.555740      0.562590     Biso  1.000000 H
   H270       1.0     0.779930      0.444260      0.437410     Biso  1.000000 H
   H271       1.0     0.555740      0.335670      0.562590     Biso  1.000000 H
   H272       1.0     0.444260      0.664330      0.437410     Biso  1.000000 H
   H273       1.0     0.664330      0.220070      0.562590     Biso  1.000000 H
   H274       1.0     0.335670      0.779930      0.437410     Biso  1.000000 H
   H275       1.0     0.779930      0.444260      0.562590     Biso  1.000000 H
   H276       1.0     0.220070      0.555740      0.437410     Biso  1.000000 H
   H277       1.0     0.664330      0.444260      0.937410     Biso  1.000000 H
   H278       1.0     0.335670      0.555740      0.062590     Biso  1.000000 H
   H279       1.0     0.779930      0.335670      0.937410     Biso  1.000000 H
   H280       1.0     0.220070      0.664330      0.062590     Biso  1.000000 H
   H281       1.0     0.555740      0.220070      0.937410     Biso  1.000000 H
   H282       1.0     0.444260      0.779930      0.062590     Biso  1.000000 H
   H283       1.0     0.335670      0.555740      0.937410     Biso  1.000000 H
   H284       1.0     0.664330      0.444260      0.062590     Biso  1.000000 H
   H285       1.0     0.220070      0.664330      0.937410     Biso  1.000000 H
   H286       1.0     0.779930      0.335670      0.062590     Biso  1.000000 H
   H287       1.0     0.444260      0.779930      0.937410     Biso  1.000000 H
   H288       1.0     0.555740      0.220070      0.062590     Biso  1.000000 H
   H289       1.0     0.333333      0.666667      0.561520     Biso  1.000000 H
   H290       1.0     0.666667      0.333333      0.438480     Biso  1.000000 H
   H291       1.0     0.666667      0.333333      0.561520     Biso  1.000000 H
   H292       1.0     0.333333      0.666667      0.438480     Biso  1.000000 H
   H293       1.0     0.666667      0.333333      0.938480     Biso  1.000000 H
   H294       1.0     0.333333      0.666667      0.061520     Biso  1.000000 H
   H295       1.0     0.333333      0.666667      0.938480     Biso  1.000000 H
   H296       1.0     0.666667      0.333333      0.061520     Biso  1.000000 H
   C1         1.0     0.347010      0.299880      0.098740     Biso  1.000000 C
   C2         1.0     0.652990      0.700120      0.901260     Biso  1.000000 C
   C3         1.0     0.700120      0.047130      0.098740     Biso  1.000000 C
   C4         1.0     0.299880      0.952870      0.901260     Biso  1.000000 C
   C5         1.0     0.952870      0.652990      0.098740     Biso  1.000000 C
   C6         1.0     0.047130      0.347010      0.901260     Biso  1.000000 C
   C7         1.0     0.652990      0.700120      0.098740     Biso  1.000000 C
   C8         1.0     0.347010      0.299880      0.901260     Biso  1.000000 C
   C9         1.0     0.299880      0.952870      0.098740     Biso  1.000000 C
   C10        1.0     0.700120      0.047130      0.901260     Biso  1.000000 C
   C11        1.0     0.047130      0.347010      0.098740     Biso  1.000000 C
   C12        1.0     0.952870      0.652990      0.901260     Biso  1.000000 C
   C13        1.0     0.299880      0.347010      0.401260     Biso  1.000000 C
   C14        1.0     0.700120      0.652990      0.598740     Biso  1.000000 C
   C15        1.0     0.047130      0.700120      0.401260     Biso  1.000000 C
   C16        1.0     0.952870      0.299880      0.598740     Biso  1.000000 C
   C17        1.0     0.652990      0.952870      0.401260     Biso  1.000000 C
   C18        1.0     0.347010      0.047130      0.598740     Biso  1.000000 C
   C19        1.0     0.700120      0.652990      0.401260     Biso  1.000000 C
   C20        1.0     0.299880      0.347010      0.598740     Biso  1.000000 C
   C21        1.0     0.952870      0.299880      0.401260     Biso  1.000000 C
   C22        1.0     0.047130      0.700120      0.598740     Biso  1.000000 C
   C23        1.0     0.347010      0.047130      0.401260     Biso  1.000000 C
   C24        1.0     0.652990      0.952870      0.598740     Biso  1.000000 C
   C25        1.0     0.469850      0.245780      0.113680     Biso  1.000000 C
   C26        1.0     0.530150      0.754220      0.886320     Biso  1.000000 C
   C27        1.0     0.754220      0.224070      0.113680     Biso  1.000000 C
   C28        1.0     0.245780      0.775930      0.886320     Biso  1.000000 C
   C29        1.0     0.775930      0.530150      0.113680     Biso  1.000000 C
   C30        1.0     0.224070      0.469850      0.886320     Biso  1.000000 C
   C31        1.0     0.530150      0.754220      0.113680     Biso  1.000000 C
   C32        1.0     0.469850      0.245780      0.886320     Biso  1.000000 C
   C33        1.0     0.245780      0.775930      0.113680     Biso  1.000000 C
   C34        1.0     0.754220      0.224070      0.886320     Biso  1.000000 C
   C35        1.0     0.224070      0.469850      0.113680     Biso  1.000000 C
   C36        1.0     0.775930      0.530150      0.886320     Biso  1.000000 C
   C37        1.0     0.245780      0.469850      0.386320     Biso  1.000000 C
   C38        1.0     0.754220      0.530150      0.613680     Biso  1.000000 C
   C39        1.0     0.224070      0.754220      0.386320     Biso  1.000000 C
   C40        1.0     0.775930      0.245780      0.613680     Biso  1.000000 C
   C41        1.0     0.530150      0.775930      0.386320     Biso  1.000000 C
   C42        1.0     0.469850      0.224070      0.613680     Biso  1.000000 C
   C43        1.0     0.754220      0.530150      0.386320     Biso  1.000000 C
   C44        1.0     0.245780      0.469850      0.613680     Biso  1.000000 C
   C45        1.0     0.775930      0.245780      0.386320     Biso  1.000000 C
   C46        1.0     0.224070      0.754220      0.613680     Biso  1.000000 C
   C47        1.0     0.469850      0.224070      0.386320     Biso  1.000000 C
   C48        1.0     0.530150      0.775930      0.613680     Biso  1.000000 C
   C49        1.0     0.483450      0.202250      0.132240     Biso  1.000000 C
   C50        1.0     0.516550      0.797750      0.867760     Biso  1.000000 C
   C51        1.0     0.797750      0.281200      0.132240     Biso  1.000000 C
   C52        1.0     0.202250      0.718800      0.867760     Biso  1.000000 C
   C53        1.0     0.718800      0.516550      0.132240     Biso  1.000000 C
   C54        1.0     0.281200      0.483450      0.867760     Biso  1.000000 C
   C55        1.0     0.516550      0.797750      0.132240     Biso  1.000000 C
   C56        1.0     0.483450      0.202250      0.867760     Biso  1.000000 C
   C57        1.0     0.202250      0.718800      0.132240     Biso  1.000000 C
   C58        1.0     0.797750      0.281200      0.867760     Biso  1.000000 C
   C59        1.0     0.281200      0.483450      0.132240     Biso  1.000000 C
   C60        1.0     0.718800      0.516550      0.867760     Biso  1.000000 C
   C61        1.0     0.202250      0.483450      0.367760     Biso  1.000000 C
   C62        1.0     0.797750      0.516550      0.632240     Biso  1.000000 C
   C63        1.0     0.281200      0.797750      0.367760     Biso  1.000000 C
   C64        1.0     0.718800      0.202250      0.632240     Biso  1.000000 C
   C65        1.0     0.516550      0.718800      0.367760     Biso  1.000000 C
   C66        1.0     0.483450      0.281200      0.632240     Biso  1.000000 C
   C67        1.0     0.797750      0.516550      0.367760     Biso  1.000000 C
   C68        1.0     0.202250      0.483450      0.632240     Biso  1.000000 C
   C69        1.0     0.718800      0.202250      0.367760     Biso  1.000000 C
   C70        1.0     0.281200      0.797750      0.632240     Biso  1.000000 C
   C71        1.0     0.483450      0.281200      0.367760     Biso  1.000000 C
   C72        1.0     0.516550      0.718800      0.632240     Biso  1.000000 C
   C73        1.0     0.440260      0.163590      0.158500     Biso  1.000000 C
   C74        1.0     0.559740      0.836410      0.841500     Biso  1.000000 C
   C75        1.0     0.836410      0.276670      0.158500     Biso  1.000000 C
   C76        1.0     0.163590      0.723330      0.841500     Biso  1.000000 C
   C77        1.0     0.723330      0.559740      0.158500     Biso  1.000000 C
   C78        1.0     0.276670      0.440260      0.841500     Biso  1.000000 C
   C79        1.0     0.559740      0.836410      0.158500     Biso  1.000000 C
   C80        1.0     0.440260      0.163590      0.841500     Biso  1.000000 C
   C81        1.0     0.163590      0.723330      0.158500     Biso  1.000000 C
   C82        1.0     0.836410      0.276670      0.841500     Biso  1.000000 C
   C83        1.0     0.276670      0.440260      0.158500     Biso  1.000000 C
   C84        1.0     0.723330      0.559740      0.841500     Biso  1.000000 C
   C85        1.0     0.163590      0.440260      0.341500     Biso  1.000000 C
   C86        1.0     0.836410      0.559740      0.658500     Biso  1.000000 C
   C87        1.0     0.276670      0.836410      0.341500     Biso  1.000000 C
   C88        1.0     0.723330      0.163590      0.658500     Biso  1.000000 C
   C89        1.0     0.559740      0.723330      0.341500     Biso  1.000000 C
   C90        1.0     0.440260      0.276670      0.658500     Biso  1.000000 C
   C91        1.0     0.836410      0.559740      0.341500     Biso  1.000000 C
   C92        1.0     0.163590      0.440260      0.658500     Biso  1.000000 C
   C93        1.0     0.723330      0.163590      0.341500     Biso  1.000000 C
   C94        1.0     0.276670      0.836410      0.658500     Biso  1.000000 C
   C95        1.0     0.440260      0.276670      0.341500     Biso  1.000000 C
   C96        1.0     0.559740      0.723330      0.658500     Biso  1.000000 C
   C97        1.0     0.382800      0.168640      0.165190     Biso  1.000000 C
   C98        1.0     0.617200      0.831360      0.834810     Biso  1.000000 C
   C99        1.0     0.831360      0.214160      0.165190     Biso  1.000000 C
   C100       1.0     0.168640      0.785840      0.834810     Biso  1.000000 C
   C101       1.0     0.785840      0.617200      0.165190     Biso  1.000000 C
   C102       1.0     0.214160      0.382800      0.834810     Biso  1.000000 C
   C103       1.0     0.617200      0.831360      0.165190     Biso  1.000000 C
   C104       1.0     0.382800      0.168640      0.834810     Biso  1.000000 C
   C105       1.0     0.168640      0.785840      0.165190     Biso  1.000000 C
   C106       1.0     0.831360      0.214160      0.834810     Biso  1.000000 C
   C107       1.0     0.214160      0.382800      0.165190     Biso  1.000000 C
   C108       1.0     0.785840      0.617200      0.834810     Biso  1.000000 C
   C109       1.0     0.168640      0.382800      0.334810     Biso  1.000000 C
   C110       1.0     0.831360      0.617200      0.665190     Biso  1.000000 C
   C111       1.0     0.214160      0.831360      0.334810     Biso  1.000000 C
   C112       1.0     0.785840      0.168640      0.665190     Biso  1.000000 C
   C113       1.0     0.617200      0.785840      0.334810     Biso  1.000000 C
   C114       1.0     0.382800      0.214160      0.665190     Biso  1.000000 C
   C115       1.0     0.831360      0.617200      0.334810     Biso  1.000000 C
   C116       1.0     0.168640      0.382800      0.665190     Biso  1.000000 C
   C117       1.0     0.785840      0.168640      0.334810     Biso  1.000000 C
   C118       1.0     0.214160      0.831360      0.665190     Biso  1.000000 C
   C119       1.0     0.382800      0.214160      0.334810     Biso  1.000000 C
   C120       1.0     0.617200      0.785840      0.665190     Biso  1.000000 C
   C121       1.0     0.369080      0.211810      0.146400     Biso  1.000000 C
   C122       1.0     0.630920      0.788190      0.853600     Biso  1.000000 C
   C123       1.0     0.788190      0.157270      0.146400     Biso  1.000000 C
   C124       1.0     0.211810      0.842730      0.853600     Biso  1.000000 C
   C125       1.0     0.842730      0.630920      0.146400     Biso  1.000000 C
   C126       1.0     0.157270      0.369080      0.853600     Biso  1.000000 C
   C127       1.0     0.630920      0.788190      0.146400     Biso  1.000000 C
   C128       1.0     0.369080      0.211810      0.853600     Biso  1.000000 C
   C129       1.0     0.211810      0.842730      0.146400     Biso  1.000000 C
   C130       1.0     0.788190      0.157270      0.853600     Biso  1.000000 C
   C131       1.0     0.157270      0.369080      0.146400     Biso  1.000000 C
   C132       1.0     0.842730      0.630920      0.853600     Biso  1.000000 C
   C133       1.0     0.211810      0.369080      0.353600     Biso  1.000000 C
   C134       1.0     0.788190      0.630920      0.646400     Biso  1.000000 C
   C135       1.0     0.157270      0.788190      0.353600     Biso  1.000000 C
   C136       1.0     0.842730      0.211810      0.646400     Biso  1.000000 C
   C137       1.0     0.630920      0.842730      0.353600     Biso  1.000000 C
   C138       1.0     0.369080      0.157270      0.646400     Biso  1.000000 C
   C139       1.0     0.788190      0.630920      0.353600     Biso  1.000000 C
   C140       1.0     0.211810      0.369080      0.646400     Biso  1.000000 C
   C141       1.0     0.842730      0.211810      0.353600     Biso  1.000000 C
   C142       1.0     0.157270      0.788190      0.646400     Biso  1.000000 C
   C143       1.0     0.369080      0.157270      0.353600     Biso  1.000000 C
   C144       1.0     0.630920      0.842730      0.646400     Biso  1.000000 C
   C145       1.0     0.412640      0.250720      0.120340     Biso  1.000000 C
   C146       1.0     0.587360      0.749280      0.879660     Biso  1.000000 C
   C147       1.0     0.749280      0.161920      0.120340     Biso  1.000000 C
   C148       1.0     0.250720      0.838080      0.879660     Biso  1.000000 C
   C149       1.0     0.838080      0.587360      0.120340     Biso  1.000000 C
   C150       1.0     0.161920      0.412640      0.879660     Biso  1.000000 C
   C151       1.0     0.587360      0.749280      0.120340     Biso  1.000000 C
   C152       1.0     0.412640      0.250720      0.879660     Biso  1.000000 C
   C153       1.0     0.250720      0.838080      0.120340     Biso  1.000000 C
   C154       1.0     0.749280      0.161920      0.879660     Biso  1.000000 C
   C155       1.0     0.161920      0.412640      0.120340     Biso  1.000000 C
   C156       1.0     0.838080      0.587360      0.879660     Biso  1.000000 C
   C157       1.0     0.250720      0.412640      0.379660     Biso  1.000000 C
   C158       1.0     0.749280      0.587360      0.620340     Biso  1.000000 C
   C159       1.0     0.161920      0.749280      0.379660     Biso  1.000000 C
   C160       1.0     0.838080      0.250720      0.620340     Biso  1.000000 C
   C161       1.0     0.587360      0.838080      0.379660     Biso  1.000000 C
   C162       1.0     0.412640      0.161920      0.620340     Biso  1.000000 C
   C163       1.0     0.749280      0.587360      0.379660     Biso  1.000000 C
   C164       1.0     0.250720      0.412640      0.620340     Biso  1.000000 C
   C165       1.0     0.838080      0.250720      0.379660     Biso  1.000000 C
   C166       1.0     0.161920      0.749280      0.620340     Biso  1.000000 C
   C167       1.0     0.412640      0.161920      0.379660     Biso  1.000000 C
   C168       1.0     0.587360      0.838080      0.620340     Biso  1.000000 C
   C169       1.0     0.282710      0.350300      0.073270     Biso  1.000000 C
   C170       1.0     0.717290      0.649700      0.926730     Biso  1.000000 C
   C171       1.0     0.649700      0.932410      0.073270     Biso  1.000000 C
   C172       1.0     0.350300      0.067590      0.926730     Biso  1.000000 C
   C173       1.0     0.067590      0.717290      0.073270     Biso  1.000000 C
   C174       1.0     0.932410      0.282710      0.926730     Biso  1.000000 C
   C175       1.0     0.717290      0.649700      0.073270     Biso  1.000000 C
   C176       1.0     0.282710      0.350300      0.926730     Biso  1.000000 C
   C177       1.0     0.350300      0.067590      0.073270     Biso  1.000000 C
   C178       1.0     0.649700      0.932410      0.926730     Biso  1.000000 C
   C179       1.0     0.932410      0.282710      0.073270     Biso  1.000000 C
   C180       1.0     0.067590      0.717290      0.926730     Biso  1.000000 C
   C181       1.0     0.350300      0.282710      0.426730     Biso  1.000000 C
   C182       1.0     0.649700      0.717290      0.573270     Biso  1.000000 C
   C183       1.0     0.932410      0.649700      0.426730     Biso  1.000000 C
   C184       1.0     0.067590      0.350300      0.573270     Biso  1.000000 C
   C185       1.0     0.717290      0.067590      0.426730     Biso  1.000000 C
   C186       1.0     0.282710      0.932410      0.573270     Biso  1.000000 C
   C187       1.0     0.649700      0.717290      0.426730     Biso  1.000000 C
   C188       1.0     0.350300      0.282710      0.573270     Biso  1.000000 C
   C189       1.0     0.067590      0.350300      0.426730     Biso  1.000000 C
   C190       1.0     0.932410      0.649700      0.573270     Biso  1.000000 C
   C191       1.0     0.282710      0.932410      0.426730     Biso  1.000000 C
   C192       1.0     0.717290      0.067590      0.573270     Biso  1.000000 C
   C193       1.0     0.279720      0.398720      0.053180     Biso  1.000000 C
   C194       1.0     0.720280      0.601280      0.946820     Biso  1.000000 C
   C195       1.0     0.601280      0.881000      0.053180     Biso  1.000000 C
   C196       1.0     0.398720      0.119000      0.946820     Biso  1.000000 C
   C197       1.0     0.119000      0.720280      0.053180     Biso  1.000000 C
   C198       1.0     0.881000      0.279720      0.946820     Biso  1.000000 C
   C199       1.0     0.720280      0.601280      0.053180     Biso  1.000000 C
   C200       1.0     0.279720      0.398720      0.946820     Biso  1.000000 C
   C201       1.0     0.398720      0.119000      0.053180     Biso  1.000000 C
   C202       1.0     0.601280      0.881000      0.946820     Biso  1.000000 C
   C203       1.0     0.881000      0.279720      0.053180     Biso  1.000000 C
   C204       1.0     0.119000      0.720280      0.946820     Biso  1.000000 C
   C205       1.0     0.398720      0.279720      0.446820     Biso  1.000000 C
   C206       1.0     0.601280      0.720280      0.553180     Biso  1.000000 C
   C207       1.0     0.881000      0.601280      0.446820     Biso  1.000000 C
   C208       1.0     0.119000      0.398720      0.553180     Biso  1.000000 C
   C209       1.0     0.720280      0.119000      0.446820     Biso  1.000000 C
   C210       1.0     0.279720      0.881000      0.553180     Biso  1.000000 C
   C211       1.0     0.601280      0.720280      0.446820     Biso  1.000000 C
   C212       1.0     0.398720      0.279720      0.553180     Biso  1.000000 C
   C213       1.0     0.119000      0.398720      0.446820     Biso  1.000000 C
   C214       1.0     0.881000      0.601280      0.553180     Biso  1.000000 C
   C215       1.0     0.279720      0.881000      0.446820     Biso  1.000000 C
   C216       1.0     0.720280      0.119000      0.553180     Biso  1.000000 C
   C217       1.0     0.337820      0.448820      0.037400     Biso  1.000000 C
   C218       1.0     0.662180      0.551180      0.962600     Biso  1.000000 C
   C219       1.0     0.551180      0.889000      0.037400     Biso  1.000000 C
   C220       1.0     0.448820      0.111000      0.962600     Biso  1.000000 C
   C221       1.0     0.111000      0.662180      0.037400     Biso  1.000000 C
   C222       1.0     0.889000      0.337820      0.962600     Biso  1.000000 C
   C223       1.0     0.662180      0.551180      0.037400     Biso  1.000000 C
   C224       1.0     0.337820      0.448820      0.962600     Biso  1.000000 C
   C225       1.0     0.448820      0.111000      0.037400     Biso  1.000000 C
   C226       1.0     0.551180      0.889000      0.962600     Biso  1.000000 C
   C227       1.0     0.889000      0.337820      0.037400     Biso  1.000000 C
   C228       1.0     0.111000      0.662180      0.962600     Biso  1.000000 C
   C229       1.0     0.448820      0.337820      0.462600     Biso  1.000000 C
   C230       1.0     0.551180      0.662180      0.537400     Biso  1.000000 C
   C231       1.0     0.889000      0.551180      0.462600     Biso  1.000000 C
   C232       1.0     0.111000      0.448820      0.537400     Biso  1.000000 C
   C233       1.0     0.662180      0.111000      0.462600     Biso  1.000000 C
   C234       1.0     0.337820      0.889000      0.537400     Biso  1.000000 C
   C235       1.0     0.551180      0.662180      0.462600     Biso  1.000000 C
   C236       1.0     0.448820      0.337820      0.537400     Biso  1.000000 C
   C237       1.0     0.111000      0.448820      0.462600     Biso  1.000000 C
   C238       1.0     0.889000      0.551180      0.537400     Biso  1.000000 C
   C239       1.0     0.337820      0.889000      0.462600     Biso  1.000000 C
   C240       1.0     0.662180      0.111000      0.537400     Biso  1.000000 C
   C241       1.0     0.399110      0.450700      0.042110     Biso  1.000000 C
   C242       1.0     0.600890      0.549300      0.957890     Biso  1.000000 C
   C243       1.0     0.549300      0.948410      0.042110     Biso  1.000000 C
   C244       1.0     0.450700      0.051590      0.957890     Biso  1.000000 C
   C245       1.0     0.051590      0.600890      0.042110     Biso  1.000000 C
   C246       1.0     0.948410      0.399110      0.957890     Biso  1.000000 C
   C247       1.0     0.600890      0.549300      0.042110     Biso  1.000000 C
   C248       1.0     0.399110      0.450700      0.957890     Biso  1.000000 C
   C249       1.0     0.450700      0.051590      0.042110     Biso  1.000000 C
   C250       1.0     0.549300      0.948410      0.957890     Biso  1.000000 C
   C251       1.0     0.948410      0.399110      0.042110     Biso  1.000000 C
   C252       1.0     0.051590      0.600890      0.957890     Biso  1.000000 C
   C253       1.0     0.450700      0.399110      0.457890     Biso  1.000000 C
   C254       1.0     0.549300      0.600890      0.542110     Biso  1.000000 C
   C255       1.0     0.948410      0.549300      0.457890     Biso  1.000000 C
   C256       1.0     0.051590      0.450700      0.542110     Biso  1.000000 C
   C257       1.0     0.600890      0.051590      0.457890     Biso  1.000000 C
   C258       1.0     0.399110      0.948410      0.542110     Biso  1.000000 C
   C259       1.0     0.549300      0.600890      0.457890     Biso  1.000000 C
   C260       1.0     0.450700      0.399110      0.542110     Biso  1.000000 C
   C261       1.0     0.051590      0.450700      0.457890     Biso  1.000000 C
   C262       1.0     0.948410      0.549300      0.542110     Biso  1.000000 C
   C263       1.0     0.399110      0.948410      0.457890     Biso  1.000000 C
   C264       1.0     0.600890      0.051590      0.542110     Biso  1.000000 C
   C265       1.0     0.402310      0.402170      0.061880     Biso  1.000000 C
   C266       1.0     0.597690      0.597830      0.938120     Biso  1.000000 C
   C267       1.0     0.597830      0.000140      0.061880     Biso  1.000000 C
   C268       1.0     0.402170      0.999860      0.938120     Biso  1.000000 C
   C269       1.0     0.999860      0.597690      0.061880     Biso  1.000000 C
   C270       1.0     0.000140      0.402310      0.938120     Biso  1.000000 C
   C271       1.0     0.597690      0.597830      0.061880     Biso  1.000000 C
   C272       1.0     0.402310      0.402170      0.938120     Biso  1.000000 C
   C273       1.0     0.402170      0.999860      0.061880     Biso  1.000000 C
   C274       1.0     0.597830      0.000140      0.938120     Biso  1.000000 C
   C275       1.0     0.000140      0.402310      0.061880     Biso  1.000000 C
   C276       1.0     0.999860      0.597690      0.938120     Biso  1.000000 C
   C277       1.0     0.402170      0.402310      0.438120     Biso  1.000000 C
   C278       1.0     0.597830      0.597690      0.561880     Biso  1.000000 C
   C279       1.0     0.000140      0.597830      0.438120     Biso  1.000000 C
   C280       1.0     0.999860      0.402170      0.561880     Biso  1.000000 C
   C281       1.0     0.597690      0.999860      0.438120     Biso  1.000000 C
   C282       1.0     0.402310      0.000140      0.561880     Biso  1.000000 C
   C283       1.0     0.597830      0.597690      0.438120     Biso  1.000000 C
   C284       1.0     0.402170      0.402310      0.561880     Biso  1.000000 C
   C285       1.0     0.999860      0.402170      0.438120     Biso  1.000000 C
   C286       1.0     0.000140      0.597830      0.561880     Biso  1.000000 C
   C287       1.0     0.402310      0.000140      0.438120     Biso  1.000000 C
   C288       1.0     0.597690      0.999860      0.561880     Biso  1.000000 C
   C289       1.0     0.344100      0.351380      0.077670     Biso  1.000000 C
   C290       1.0     0.655900      0.648620      0.922330     Biso  1.000000 C
   C291       1.0     0.648620      0.992720      0.077670     Biso  1.000000 C
   C292       1.0     0.351380      0.007280      0.922330     Biso  1.000000 C
   C293       1.0     0.007280      0.655900      0.077670     Biso  1.000000 C
   C294       1.0     0.992720      0.344100      0.922330     Biso  1.000000 C
   C295       1.0     0.655900      0.648620      0.077670     Biso  1.000000 C
   C296       1.0     0.344100      0.351380      0.922330     Biso  1.000000 C
   C297       1.0     0.351380      0.007280      0.077670     Biso  1.000000 C
   C298       1.0     0.648620      0.992720      0.922330     Biso  1.000000 C
   C299       1.0     0.992720      0.344100      0.077670     Biso  1.000000 C
   C300       1.0     0.007280      0.655900      0.922330     Biso  1.000000 C
   C301       1.0     0.351380      0.344100      0.422330     Biso  1.000000 C
   C302       1.0     0.648620      0.655900      0.577670     Biso  1.000000 C
   C303       1.0     0.992720      0.648620      0.422330     Biso  1.000000 C
   C304       1.0     0.007280      0.351380      0.577670     Biso  1.000000 C
   C305       1.0     0.655900      0.007280      0.422330     Biso  1.000000 C
   C306       1.0     0.344100      0.992720      0.577670     Biso  1.000000 C
   C307       1.0     0.648620      0.655900      0.422330     Biso  1.000000 C
   C308       1.0     0.351380      0.344100      0.577670     Biso  1.000000 C
   C309       1.0     0.007280      0.351380      0.422330     Biso  1.000000 C
   C310       1.0     0.992720      0.648620      0.577670     Biso  1.000000 C
   C311       1.0     0.344100      0.992720      0.422330     Biso  1.000000 C
   C312       1.0     0.655900      0.007280      0.577670     Biso  1.000000 C
   C313       1.0     0.333333      0.606240      0.017790     Biso  1.000000 C
   C314       1.0     0.666667      0.393760      0.982210     Biso  1.000000 C
   C315       1.0     0.393760      0.727093      0.017790     Biso  1.000000 C
   C316       1.0     0.606240      0.272907      0.982210     Biso  1.000000 C
   C317       1.0     0.272907      0.666667      0.017790     Biso  1.000000 C
   C318       1.0     0.727093      0.333333      0.982210     Biso  1.000000 C
   C319       1.0     0.666667      0.393760      0.017790     Biso  1.000000 C
   C320       1.0     0.333333      0.606240      0.982210     Biso  1.000000 C
   C321       1.0     0.606240      0.272907      0.017790     Biso  1.000000 C
   C322       1.0     0.393760      0.727093      0.982210     Biso  1.000000 C
   C323       1.0     0.727093      0.333333      0.017790     Biso  1.000000 C
   C324       1.0     0.272907      0.666667      0.982210     Biso  1.000000 C
   C325       1.0     0.606240      0.333333      0.482210     Biso  1.000000 C
   C326       1.0     0.393760      0.666667      0.517790     Biso  1.000000 C
   C327       1.0     0.727093      0.393760      0.482210     Biso  1.000000 C
   C328       1.0     0.272907      0.606240      0.517790     Biso  1.000000 C
   C329       1.0     0.666667      0.272907      0.482210     Biso  1.000000 C
   C330       1.0     0.333333      0.727093      0.517790     Biso  1.000000 C
   C331       1.0     0.393760      0.666667      0.482210     Biso  1.000000 C
   C332       1.0     0.606240      0.333333      0.517790     Biso  1.000000 C
   C333       1.0     0.272907      0.606240      0.482210     Biso  1.000000 C
   C334       1.0     0.727093      0.393760      0.517790     Biso  1.000000 C
   C335       1.0     0.333333      0.727093      0.482210     Biso  1.000000 C
   C336       1.0     0.666667      0.272907      0.517790     Biso  1.000000 C
   C337       1.0     0.335570      0.502090      0.017850     Biso  1.000000 C
   C338       1.0     0.664430      0.497910      0.982150     Biso  1.000000 C
   C339       1.0     0.497910      0.833480      0.017850     Biso  1.000000 C
   C340       1.0     0.502090      0.166520      0.982150     Biso  1.000000 C
   C341       1.0     0.166520      0.664430      0.017850     Biso  1.000000 C
   C342       1.0     0.833480      0.335570      0.982150     Biso  1.000000 C
   C343       1.0     0.664430      0.497910      0.017850     Biso  1.000000 C
   C344       1.0     0.335570      0.502090      0.982150     Biso  1.000000 C
   C345       1.0     0.502090      0.166520      0.017850     Biso  1.000000 C
   C346       1.0     0.497910      0.833480      0.982150     Biso  1.000000 C
   C347       1.0     0.833480      0.335570      0.017850     Biso  1.000000 C
   C348       1.0     0.166520      0.664430      0.982150     Biso  1.000000 C
   C349       1.0     0.502090      0.335570      0.482150     Biso  1.000000 C
   C350       1.0     0.497910      0.664430      0.517850     Biso  1.000000 C
   C351       1.0     0.833480      0.497910      0.482150     Biso  1.000000 C
   C352       1.0     0.166520      0.502090      0.517850     Biso  1.000000 C
   C353       1.0     0.664430      0.166520      0.482150     Biso  1.000000 C
   C354       1.0     0.335570      0.833480      0.517850     Biso  1.000000 C
   C355       1.0     0.497910      0.664430      0.482150     Biso  1.000000 C
   C356       1.0     0.502090      0.335570      0.517850     Biso  1.000000 C
   C357       1.0     0.166520      0.502090      0.482150     Biso  1.000000 C
   C358       1.0     0.833480      0.497910      0.517850     Biso  1.000000 C
   C359       1.0     0.335570      0.833480      0.482150     Biso  1.000000 C
   C360       1.0     0.664430      0.166520      0.517850     Biso  1.000000 C
   C361       1.0     0.404990      0.056320      0.190060     Biso  1.000000 C
   C362       1.0     0.595010      0.943680      0.809940     Biso  1.000000 C
   C363       1.0     0.943680      0.348670      0.190060     Biso  1.000000 C
   C364       1.0     0.056320      0.651330      0.809940     Biso  1.000000 C
   C365       1.0     0.651330      0.595010      0.190060     Biso  1.000000 C
   C366       1.0     0.348670      0.404990      0.809940     Biso  1.000000 C
   C367       1.0     0.595010      0.943680      0.190060     Biso  1.000000 C
   C368       1.0     0.404990      0.056320      0.809940     Biso  1.000000 C
   C369       1.0     0.056320      0.651330      0.190060     Biso  1.000000 C
   C370       1.0     0.943680      0.348670      0.809940     Biso  1.000000 C
   C371       1.0     0.348670      0.404990      0.190060     Biso  1.000000 C
   C372       1.0     0.651330      0.595010      0.809940     Biso  1.000000 C
   C373       1.0     0.056320      0.404990      0.309940     Biso  1.000000 C
   C374       1.0     0.943680      0.595010      0.690060     Biso  1.000000 C
   C375       1.0     0.348670      0.943680      0.309940     Biso  1.000000 C
   C376       1.0     0.651330      0.056320      0.690060     Biso  1.000000 C
   C377       1.0     0.595010      0.651330      0.309940     Biso  1.000000 C
   C378       1.0     0.404990      0.348670      0.690060     Biso  1.000000 C
   C379       1.0     0.943680      0.595010      0.309940     Biso  1.000000 C
   C380       1.0     0.056320      0.404990      0.690060     Biso  1.000000 C
   C381       1.0     0.651330      0.056320      0.309940     Biso  1.000000 C
   C382       1.0     0.348670      0.943680      0.690060     Biso  1.000000 C
   C383       1.0     0.404990      0.348670      0.309940     Biso  1.000000 C
   C384       1.0     0.595010      0.651330      0.690060     Biso  1.000000 C
   C385       1.0     0.419020      0.017780      0.212290     Biso  1.000000 C
   C386       1.0     0.580980      0.982220      0.787710     Biso  1.000000 C
   C387       1.0     0.982220      0.401240      0.212290     Biso  1.000000 C
   C388       1.0     0.017780      0.598760      0.787710     Biso  1.000000 C
   C389       1.0     0.598760      0.580980      0.212290     Biso  1.000000 C
   C390       1.0     0.401240      0.419020      0.787710     Biso  1.000000 C
   C391       1.0     0.580980      0.982220      0.212290     Biso  1.000000 C
   C392       1.0     0.419020      0.017780      0.787710     Biso  1.000000 C
   C393       1.0     0.017780      0.598760      0.212290     Biso  1.000000 C
   C394       1.0     0.982220      0.401240      0.787710     Biso  1.000000 C
   C395       1.0     0.401240      0.419020      0.212290     Biso  1.000000 C
   C396       1.0     0.598760      0.580980      0.787710     Biso  1.000000 C
   C397       1.0     0.017780      0.419020      0.287710     Biso  1.000000 C
   C398       1.0     0.982220      0.580980      0.712290     Biso  1.000000 C
   C399       1.0     0.401240      0.982220      0.287710     Biso  1.000000 C
   C400       1.0     0.598760      0.017780      0.712290     Biso  1.000000 C
   C401       1.0     0.580980      0.598760      0.287710     Biso  1.000000 C
   C402       1.0     0.419020      0.401240      0.712290     Biso  1.000000 C
   C403       1.0     0.982220      0.580980      0.287710     Biso  1.000000 C
   C404       1.0     0.017780      0.419020      0.712290     Biso  1.000000 C
   C405       1.0     0.598760      0.017780      0.287710     Biso  1.000000 C
   C406       1.0     0.401240      0.982220      0.712290     Biso  1.000000 C
   C407       1.0     0.419020      0.401240      0.287710     Biso  1.000000 C
   C408       1.0     0.580980      0.598760      0.712290     Biso  1.000000 C
   C409       1.0     0.484160      0.042920      0.225800     Biso  1.000000 C
   C410       1.0     0.515840      0.957080      0.774200     Biso  1.000000 C
   C411       1.0     0.957080      0.441240      0.225800     Biso  1.000000 C
   C412       1.0     0.042920      0.558760      0.774200     Biso  1.000000 C
   C413       1.0     0.558760      0.515840      0.225800     Biso  1.000000 C
   C414       1.0     0.441240      0.484160      0.774200     Biso  1.000000 C
   C415       1.0     0.515840      0.957080      0.225800     Biso  1.000000 C
   C416       1.0     0.484160      0.042920      0.774200     Biso  1.000000 C
   C417       1.0     0.042920      0.558760      0.225800     Biso  1.000000 C
   C418       1.0     0.957080      0.441240      0.774200     Biso  1.000000 C
   C419       1.0     0.441240      0.484160      0.225800     Biso  1.000000 C
   C420       1.0     0.558760      0.515840      0.774200     Biso  1.000000 C
   C421       1.0     0.042920      0.484160      0.274200     Biso  1.000000 C
   C422       1.0     0.957080      0.515840      0.725800     Biso  1.000000 C
   C423       1.0     0.441240      0.957080      0.274200     Biso  1.000000 C
   C424       1.0     0.558760      0.042920      0.725800     Biso  1.000000 C
   C425       1.0     0.515840      0.558760      0.274200     Biso  1.000000 C
   C426       1.0     0.484160      0.441240      0.725800     Biso  1.000000 C
   C427       1.0     0.957080      0.515840      0.274200     Biso  1.000000 C
   C428       1.0     0.042920      0.484160      0.725800     Biso  1.000000 C
   C429       1.0     0.558760      0.042920      0.274200     Biso  1.000000 C
   C430       1.0     0.441240      0.957080      0.725800     Biso  1.000000 C
   C431       1.0     0.484160      0.441240      0.274200     Biso  1.000000 C
   C432       1.0     0.515840      0.558760      0.725800     Biso  1.000000 C
   C433       1.0     0.536070      0.104540      0.213040     Biso  1.000000 C
   C434       1.0     0.463930      0.895460      0.786960     Biso  1.000000 C
   C435       1.0     0.895460      0.431530      0.213040     Biso  1.000000 C
   C436       1.0     0.104540      0.568470      0.786960     Biso  1.000000 C
   C437       1.0     0.568470      0.463930      0.213040     Biso  1.000000 C
   C438       1.0     0.431530      0.536070      0.786960     Biso  1.000000 C
   C439       1.0     0.463930      0.895460      0.213040     Biso  1.000000 C
   C440       1.0     0.536070      0.104540      0.786960     Biso  1.000000 C
   C441       1.0     0.104540      0.568470      0.213040     Biso  1.000000 C
   C442       1.0     0.895460      0.431530      0.786960     Biso  1.000000 C
   C443       1.0     0.431530      0.536070      0.213040     Biso  1.000000 C
   C444       1.0     0.568470      0.463930      0.786960     Biso  1.000000 C
   C445       1.0     0.104540      0.536070      0.286960     Biso  1.000000 C
   C446       1.0     0.895460      0.463930      0.713040     Biso  1.000000 C
   C447       1.0     0.431530      0.895460      0.286960     Biso  1.000000 C
   C448       1.0     0.568470      0.104540      0.713040     Biso  1.000000 C
   C449       1.0     0.463930      0.568470      0.286960     Biso  1.000000 C
   C450       1.0     0.536070      0.431530      0.713040     Biso  1.000000 C
   C451       1.0     0.895460      0.463930      0.286960     Biso  1.000000 C
   C452       1.0     0.104540      0.536070      0.713040     Biso  1.000000 C
   C453       1.0     0.568470      0.104540      0.286960     Biso  1.000000 C
   C454       1.0     0.431530      0.895460      0.713040     Biso  1.000000 C
   C455       1.0     0.536070      0.431530      0.286960     Biso  1.000000 C
   C456       1.0     0.463930      0.568470      0.713040     Biso  1.000000 C
   C457       1.0     0.521870      0.143590      0.191390     Biso  1.000000 C
   C458       1.0     0.478130      0.856410      0.808610     Biso  1.000000 C
   C459       1.0     0.856410      0.378280      0.191390     Biso  1.000000 C
   C460       1.0     0.143590      0.621720      0.808610     Biso  1.000000 C
   C461       1.0     0.621720      0.478130      0.191390     Biso  1.000000 C
   C462       1.0     0.378280      0.521870      0.808610     Biso  1.000000 C
   C463       1.0     0.478130      0.856410      0.191390     Biso  1.000000 C
   C464       1.0     0.521870      0.143590      0.808610     Biso  1.000000 C
   C465       1.0     0.143590      0.621720      0.191390     Biso  1.000000 C
   C466       1.0     0.856410      0.378280      0.808610     Biso  1.000000 C
   C467       1.0     0.378280      0.521870      0.191390     Biso  1.000000 C
   C468       1.0     0.621720      0.478130      0.808610     Biso  1.000000 C
   C469       1.0     0.143590      0.521870      0.308610     Biso  1.000000 C
   C470       1.0     0.856410      0.478130      0.691390     Biso  1.000000 C
   C471       1.0     0.378280      0.856410      0.308610     Biso  1.000000 C
   C472       1.0     0.621720      0.143590      0.691390     Biso  1.000000 C
   C473       1.0     0.478130      0.621720      0.308610     Biso  1.000000 C
   C474       1.0     0.521870      0.378280      0.691390     Biso  1.000000 C
   C475       1.0     0.856410      0.478130      0.308610     Biso  1.000000 C
   C476       1.0     0.143590      0.521870      0.691390     Biso  1.000000 C
   C477       1.0     0.621720      0.143590      0.308610     Biso  1.000000 C
   C478       1.0     0.378280      0.856410      0.691390     Biso  1.000000 C
   C479       1.0     0.521870      0.378280      0.308610     Biso  1.000000 C
   C480       1.0     0.478130      0.621720      0.691390     Biso  1.000000 C
   C481       1.0     0.456010      0.120340      0.179980     Biso  1.000000 C
   C482       1.0     0.543990      0.879660      0.820020     Biso  1.000000 C
   C483       1.0     0.879660      0.335670      0.179980     Biso  1.000000 C
   C484       1.0     0.120340      0.664330      0.820020     Biso  1.000000 C
   C485       1.0     0.664330      0.543990      0.179980     Biso  1.000000 C
   C486       1.0     0.335670      0.456010      0.820020     Biso  1.000000 C
   C487       1.0     0.543990      0.879660      0.179980     Biso  1.000000 C
   C488       1.0     0.456010      0.120340      0.820020     Biso  1.000000 C
   C489       1.0     0.120340      0.664330      0.179980     Biso  1.000000 C
   C490       1.0     0.879660      0.335670      0.820020     Biso  1.000000 C
   C491       1.0     0.335670      0.456010      0.179980     Biso  1.000000 C
   C492       1.0     0.664330      0.543990      0.820020     Biso  1.000000 C
   C493       1.0     0.120340      0.456010      0.320020     Biso  1.000000 C
   C494       1.0     0.879660      0.543990      0.679980     Biso  1.000000 C
   C495       1.0     0.335670      0.879660      0.320020     Biso  1.000000 C
   C496       1.0     0.664330      0.120340      0.679980     Biso  1.000000 C
   C497       1.0     0.543990      0.664330      0.320020     Biso  1.000000 C
   C498       1.0     0.456010      0.335670      0.679980     Biso  1.000000 C
   C499       1.0     0.879660      0.543990      0.320020     Biso  1.000000 C
   C500       1.0     0.120340      0.456010      0.679980     Biso  1.000000 C
   C501       1.0     0.664330      0.120340      0.320020     Biso  1.000000 C
   C502       1.0     0.335670      0.879660      0.679980     Biso  1.000000 C
   C503       1.0     0.456010      0.335670      0.320020     Biso  1.000000 C
   C504       1.0     0.543990      0.664330      0.679980     Biso  1.000000 C
   C505       1.0     0.445420      0.665400      0.535480     Biso  1.000000 C
   C506       1.0     0.554580      0.334600      0.464520     Biso  1.000000 C
   C507       1.0     0.334600      0.780020      0.535480     Biso  1.000000 C
   C508       1.0     0.665400      0.219980      0.464520     Biso  1.000000 C
   C509       1.0     0.219980      0.554580      0.535480     Biso  1.000000 C
   C510       1.0     0.780020      0.445420      0.464520     Biso  1.000000 C
   C511       1.0     0.554580      0.334600      0.535480     Biso  1.000000 C
   C512       1.0     0.445420      0.665400      0.464520     Biso  1.000000 C
   C513       1.0     0.665400      0.219980      0.535480     Biso  1.000000 C
   C514       1.0     0.334600      0.780020      0.464520     Biso  1.000000 C
   C515       1.0     0.780020      0.445420      0.535480     Biso  1.000000 C
   C516       1.0     0.219980      0.554580      0.464520     Biso  1.000000 C
   C517       1.0     0.665400      0.445420      0.964520     Biso  1.000000 C
   C518       1.0     0.334600      0.554580      0.035480     Biso  1.000000 C
   C519       1.0     0.780020      0.334600      0.964520     Biso  1.000000 C
   C520       1.0     0.219980      0.665400      0.035480     Biso  1.000000 C
   C521       1.0     0.554580      0.219980      0.964520     Biso  1.000000 C
   C522       1.0     0.445420      0.780020      0.035480     Biso  1.000000 C
   C523       1.0     0.334600      0.554580      0.964520     Biso  1.000000 C
   C524       1.0     0.665400      0.445420      0.035480     Biso  1.000000 C
   C525       1.0     0.219980      0.665400      0.964520     Biso  1.000000 C
   C526       1.0     0.780020      0.334600      0.035480     Biso  1.000000 C
   C527       1.0     0.445420      0.780020      0.964520     Biso  1.000000 C
   C528       1.0     0.554580      0.219980      0.035480     Biso  1.000000 C
   C529       1.0     0.000000      0.500000      0.250000     Biso  1.000000 C
   C530       1.0     0.000000      0.500000      0.750000     Biso  1.000000 C
   C531       1.0     0.500000      0.500000      0.250000     Biso  1.000000 C
   C532       1.0     0.500000      0.500000      0.750000     Biso  1.000000 C
   C533       1.0     0.500000      0.000000      0.250000     Biso  1.000000 C
   C534       1.0     0.500000      0.000000      0.750000     Biso  1.000000 C
   C535       1.0     0.333333      0.666667      0.533580     Biso  1.000000 C
   C536       1.0     0.666667      0.333333      0.466420     Biso  1.000000 C
   C537       1.0     0.666667      0.333333      0.533580     Biso  1.000000 C
   C538       1.0     0.333333      0.666667      0.466420     Biso  1.000000 C
   C539       1.0     0.666667      0.333333      0.966420     Biso  1.000000 C
   C540       1.0     0.333333      0.666667      0.033580     Biso  1.000000 C
   C541       1.0     0.333333      0.666667      0.966420     Biso  1.000000 C
   C542       1.0     0.666667      0.333333      0.033580     Biso  1.000000 C
   N1         1.0     0.402210      0.297350      0.100800     Biso  1.000000 N
   N2         1.0     0.597790      0.702650      0.899200     Biso  1.000000 N
   N3         1.0     0.702650      0.104860      0.100800     Biso  1.000000 N
   N4         1.0     0.297350      0.895140      0.899200     Biso  1.000000 N
   N5         1.0     0.895140      0.597790      0.100800     Biso  1.000000 N
   N6         1.0     0.104860      0.402210      0.899200     Biso  1.000000 N
   N7         1.0     0.597790      0.702650      0.100800     Biso  1.000000 N
   N8         1.0     0.402210      0.297350      0.899200     Biso  1.000000 N
   N9         1.0     0.297350      0.895140      0.100800     Biso  1.000000 N
   N10        1.0     0.702650      0.104860      0.899200     Biso  1.000000 N
   N11        1.0     0.104860      0.402210      0.100800     Biso  1.000000 N
   N12        1.0     0.895140      0.597790      0.899200     Biso  1.000000 N
   N13        1.0     0.297350      0.402210      0.399200     Biso  1.000000 N
   N14        1.0     0.702650      0.597790      0.600800     Biso  1.000000 N
   N15        1.0     0.104860      0.702650      0.399200     Biso  1.000000 N
   N16        1.0     0.895140      0.297350      0.600800     Biso  1.000000 N
   N17        1.0     0.597790      0.895140      0.399200     Biso  1.000000 N
   N18        1.0     0.402210      0.104860      0.600800     Biso  1.000000 N
   N19        1.0     0.702650      0.597790      0.399200     Biso  1.000000 N
   N20        1.0     0.297350      0.402210      0.600800     Biso  1.000000 N
   N21        1.0     0.895140      0.297350      0.399200     Biso  1.000000 N
   N22        1.0     0.104860      0.702650      0.600800     Biso  1.000000 N
   N23        1.0     0.402210      0.104860      0.399200     Biso  1.000000 N
   N24        1.0     0.597790      0.895140      0.600800     Biso  1.000000 N
   F1         1.0     0.538320      0.197360      0.124250     Biso  1.000000 F
   F2         1.0     0.461680      0.802640      0.875750     Biso  1.000000 F
   F3         1.0     0.802640      0.340960      0.124250     Biso  1.000000 F
   F4         1.0     0.197360      0.659040      0.875750     Biso  1.000000 F
   F5         1.0     0.659040      0.461680      0.124250     Biso  1.000000 F
   F6         1.0     0.340960      0.538320      0.875750     Biso  1.000000 F
   F7         1.0     0.461680      0.802640      0.124250     Biso  1.000000 F
   F8         1.0     0.538320      0.197360      0.875750     Biso  1.000000 F
   F9         1.0     0.197360      0.659040      0.124250     Biso  1.000000 F
   F10        1.0     0.802640      0.340960      0.875750     Biso  1.000000 F
   F11        1.0     0.340960      0.538320      0.124250     Biso  1.000000 F
   F12        1.0     0.659040      0.461680      0.875750     Biso  1.000000 F
   F13        1.0     0.197360      0.538320      0.375750     Biso  1.000000 F
   F14        1.0     0.802640      0.461680      0.624250     Biso  1.000000 F
   F15        1.0     0.340960      0.802640      0.375750     Biso  1.000000 F
   F16        1.0     0.659040      0.197360      0.624250     Biso  1.000000 F
   F17        1.0     0.461680      0.659040      0.375750     Biso  1.000000 F
   F18        1.0     0.538320      0.340960      0.624250     Biso  1.000000 F
   F19        1.0     0.802640      0.461680      0.375750     Biso  1.000000 F
   F20        1.0     0.197360      0.538320      0.624250     Biso  1.000000 F
   F21        1.0     0.659040      0.197360      0.375750     Biso  1.000000 F
   F22        1.0     0.340960      0.802640      0.624250     Biso  1.000000 F
   F23        1.0     0.538320      0.340960      0.375750     Biso  1.000000 F
   F24        1.0     0.461680      0.659040      0.624250     Biso  1.000000 F
   F25        1.0     0.225700      0.302560      0.088430     Biso  1.000000 F
   F26        1.0     0.774300      0.697440      0.911570     Biso  1.000000 F
   F27        1.0     0.697440      0.923140      0.088430     Biso  1.000000 F
   F28        1.0     0.302560      0.076860      0.911570     Biso  1.000000 F
   F29        1.0     0.076860      0.774300      0.088430     Biso  1.000000 F
   F30        1.0     0.923140      0.225700      0.911570     Biso  1.000000 F
   F31        1.0     0.774300      0.697440      0.088430     Biso  1.000000 F
   F32        1.0     0.225700      0.302560      0.911570     Biso  1.000000 F
   F33        1.0     0.302560      0.076860      0.088430     Biso  1.000000 F
   F34        1.0     0.697440      0.923140      0.911570     Biso  1.000000 F
   F35        1.0     0.923140      0.225700      0.088430     Biso  1.000000 F
   F36        1.0     0.076860      0.774300      0.911570     Biso  1.000000 F
   F37        1.0     0.302560      0.225700      0.411570     Biso  1.000000 F
   F38        1.0     0.697440      0.774300      0.588430     Biso  1.000000 F
   F39        1.0     0.923140      0.697440      0.411570     Biso  1.000000 F
   F40        1.0     0.076860      0.302560      0.588430     Biso  1.000000 F
   F41        1.0     0.774300      0.076860      0.411570     Biso  1.000000 F
   F42        1.0     0.225700      0.923140      0.588430     Biso  1.000000 F
   F43        1.0     0.697440      0.774300      0.411570     Biso  1.000000 F
   F44        1.0     0.302560      0.225700      0.588430     Biso  1.000000 F
   F45        1.0     0.076860      0.302560      0.411570     Biso  1.000000 F
   F46        1.0     0.923140      0.697440      0.588430     Biso  1.000000 F
   F47        1.0     0.225700      0.923140      0.411570     Biso  1.000000 F
   F48        1.0     0.774300      0.076860      0.588430     Biso  1.000000 F
