#======================================================================

# CRYSTAL DATA

#----------------------------------------------------------------------

data_VESTA_phase_1


_chemical_name_common                  ''
_cell_length_a                         54.13990
_cell_length_b                         54.13990
_cell_length_c                         49.10370
_cell_angle_alpha                      90
_cell_angle_beta                       90
_cell_angle_gamma                      120
_space_group_name_H-M_alt              'P 1'
_space_group_IT_number                 1

loop_
_space_group_symop_operation_xyz
   'x, y, z'

loop_
   _atom_site_label
   _atom_site_occupancy
   _atom_site_fract_x
   _atom_site_fract_y
   _atom_site_fract_z
   _atom_site_adp_type
   _atom_site_B_iso_or_equiv
   _atom_site_type_symbol
   C1         1.0     0.330850      0.639730      0.387090     Biso  1.000000 C
   C2         1.0     0.360270      0.691120      0.387090     Biso  1.000000 C
   C3         1.0     0.308880      0.669150      0.387090     Biso  1.000000 C
   C4         1.0     0.639730      0.330850      0.612910     Biso  1.000000 C
   C5         1.0     0.691120      0.360270      0.612910     Biso  1.000000 C
   C6         1.0     0.669150      0.308880      0.612910     Biso  1.000000 C
   C7         1.0     0.997517      0.973063      0.720423     Biso  1.000000 C
   C8         1.0     0.026937      0.024453      0.720423     Biso  1.000000 C
   C9         1.0     0.975547      0.002483      0.720423     Biso  1.000000 C
   C10        1.0     0.306397      0.664183      0.946243     Biso  1.000000 C
   C11        1.0     0.357787      0.693603      0.946243     Biso  1.000000 C
   C12        1.0     0.335817      0.642213      0.946243     Biso  1.000000 C
   C13        1.0     0.664183      0.306397      0.053757     Biso  1.000000 C
   C14        1.0     0.693603      0.357787      0.053757     Biso  1.000000 C
   C15        1.0     0.642213      0.335817      0.053757     Biso  1.000000 C
   C16        1.0     0.973063      0.997517      0.279577     Biso  1.000000 C
   C17        1.0     0.024453      0.026937      0.279577     Biso  1.000000 C
   C18        1.0     0.002483      0.975547      0.279577     Biso  1.000000 C
   C19        1.0     0.328690      0.616350      0.373000     Biso  1.000000 C
   C20        1.0     0.383650      0.712340      0.373000     Biso  1.000000 C
   C21        1.0     0.287660      0.671310      0.373000     Biso  1.000000 C
   C22        1.0     0.616350      0.328690      0.627000     Biso  1.000000 C
   C23        1.0     0.712340      0.383650      0.627000     Biso  1.000000 C
   C24        1.0     0.671310      0.287660      0.627000     Biso  1.000000 C
   C25        1.0     0.995357      0.949683      0.706333     Biso  1.000000 C
   C26        1.0     0.050317      0.045673      0.706333     Biso  1.000000 C
   C27        1.0     0.954327      0.004643      0.706333     Biso  1.000000 C
   C28        1.0     0.283017      0.662023      0.960333     Biso  1.000000 C
   C29        1.0     0.379007      0.716983      0.960333     Biso  1.000000 C
   C30        1.0     0.337977      0.620993      0.960333     Biso  1.000000 C
   C31        1.0     0.662023      0.283017      0.039667     Biso  1.000000 C
   C32        1.0     0.716983      0.379007      0.039667     Biso  1.000000 C
   C33        1.0     0.620993      0.337977      0.039667     Biso  1.000000 C
   C34        1.0     0.949683      0.995357      0.293667     Biso  1.000000 C
   C35        1.0     0.045673      0.050317      0.293667     Biso  1.000000 C
   C36        1.0     0.004643      0.954327      0.293667     Biso  1.000000 C
   C37        1.0     0.326640      0.593060      0.387720     Biso  1.000000 C
   C38        1.0     0.406940      0.733580      0.387720     Biso  1.000000 C
   C39        1.0     0.266420      0.673360      0.387720     Biso  1.000000 C
   C40        1.0     0.593060      0.326640      0.612280     Biso  1.000000 C
   C41        1.0     0.733580      0.406940      0.612280     Biso  1.000000 C
   C42        1.0     0.673360      0.266420      0.612280     Biso  1.000000 C
   C43        1.0     0.993307      0.926393      0.721053     Biso  1.000000 C
   C44        1.0     0.073607      0.066913      0.721053     Biso  1.000000 C
   C45        1.0     0.933087      0.006693      0.721053     Biso  1.000000 C
   C46        1.0     0.259727      0.659973      0.945613     Biso  1.000000 C
   C47        1.0     0.400247      0.740273      0.945613     Biso  1.000000 C
   C48        1.0     0.340027      0.599753      0.945613     Biso  1.000000 C
   C49        1.0     0.659973      0.259727      0.054387     Biso  1.000000 C
   C50        1.0     0.740273      0.400247      0.054387     Biso  1.000000 C
   C51        1.0     0.599753      0.340027      0.054387     Biso  1.000000 C
   C52        1.0     0.926393      0.993307      0.278947     Biso  1.000000 C
   C53        1.0     0.066913      0.073607      0.278947     Biso  1.000000 C
   C54        1.0     0.006693      0.933087      0.278947     Biso  1.000000 C
   C55        1.0     0.345590      0.570150      0.356510     Biso  1.000000 C
   C56        1.0     0.429850      0.775440      0.356510     Biso  1.000000 C
   C57        1.0     0.224560      0.654410      0.356510     Biso  1.000000 C
   C58        1.0     0.570150      0.345590      0.643490     Biso  1.000000 C
   C59        1.0     0.775440      0.429850      0.643490     Biso  1.000000 C
   C60        1.0     0.654410      0.224560      0.643490     Biso  1.000000 C
   C61        1.0     0.012257      0.903483      0.689843     Biso  1.000000 C
   C62        1.0     0.096517      0.108773      0.689843     Biso  1.000000 C
   C63        1.0     0.891227      0.987743      0.689843     Biso  1.000000 C
   C64        1.0     0.236817      0.678923      0.976823     Biso  1.000000 C
   C65        1.0     0.442107      0.763183      0.976823     Biso  1.000000 C
   C66        1.0     0.321077      0.557893      0.976823     Biso  1.000000 C
   C67        1.0     0.678923      0.236817      0.023177     Biso  1.000000 C
   C68        1.0     0.763183      0.442107      0.023177     Biso  1.000000 C
   C69        1.0     0.557893      0.321077      0.023177     Biso  1.000000 C
   C70        1.0     0.903483      0.012257      0.310157     Biso  1.000000 C
   C71        1.0     0.108773      0.096517      0.310157     Biso  1.000000 C
   C72        1.0     0.987743      0.891227      0.310157     Biso  1.000000 C
   C73        1.0     0.323330      0.567930      0.372800     Biso  1.000000 C
   C74        1.0     0.432070      0.755400      0.372800     Biso  1.000000 C
   C75        1.0     0.244600      0.676670      0.372800     Biso  1.000000 C
   C76        1.0     0.567930      0.323330      0.627200     Biso  1.000000 C
   C77        1.0     0.755400      0.432070      0.627200     Biso  1.000000 C
   C78        1.0     0.676670      0.244600      0.627200     Biso  1.000000 C
   C79        1.0     0.989997      0.901263      0.706133     Biso  1.000000 C
   C80        1.0     0.098737      0.088733      0.706133     Biso  1.000000 C
   C81        1.0     0.911267      0.010003      0.706133     Biso  1.000000 C
   C82        1.0     0.234597      0.656663      0.960533     Biso  1.000000 C
   C83        1.0     0.422067      0.765403      0.960533     Biso  1.000000 C
   C84        1.0     0.343337      0.577933      0.960533     Biso  1.000000 C
   C85        1.0     0.656663      0.234597      0.039467     Biso  1.000000 C
   C86        1.0     0.765403      0.422067      0.039467     Biso  1.000000 C
   C87        1.0     0.577933      0.343337      0.039467     Biso  1.000000 C
   C88        1.0     0.901263      0.989997      0.293867     Biso  1.000000 C
   C89        1.0     0.088733      0.098737      0.293867     Biso  1.000000 C
   C90        1.0     0.010003      0.911267      0.293867     Biso  1.000000 C
   C91        1.0     0.299180      0.541120      0.377230     Biso  1.000000 C
   C92        1.0     0.458880      0.758060      0.377230     Biso  1.000000 C
   C93        1.0     0.241940      0.700820      0.377230     Biso  1.000000 C
   C94        1.0     0.541120      0.299180      0.622770     Biso  1.000000 C
   C95        1.0     0.758060      0.458880      0.622770     Biso  1.000000 C
   C96        1.0     0.700820      0.241940      0.622770     Biso  1.000000 C
   C97        1.0     0.965847      0.874453      0.710563     Biso  1.000000 C
   C98        1.0     0.125547      0.091393      0.710563     Biso  1.000000 C
   C99        1.0     0.908607      0.034153      0.710563     Biso  1.000000 C
   C100       1.0     0.207787      0.632513      0.956103     Biso  1.000000 C
   C101       1.0     0.424727      0.792213      0.956103     Biso  1.000000 C
   C102       1.0     0.367487      0.575273      0.956103     Biso  1.000000 C
   C103       1.0     0.632513      0.207787      0.043897     Biso  1.000000 C
   C104       1.0     0.792213      0.424727      0.043897     Biso  1.000000 C
   C105       1.0     0.575273      0.367487      0.043897     Biso  1.000000 C
   C106       1.0     0.874453      0.965847      0.289437     Biso  1.000000 C
   C107       1.0     0.091393      0.125547      0.289437     Biso  1.000000 C
   C108       1.0     0.034153      0.908607      0.289437     Biso  1.000000 C
   C109       1.0     0.298020      0.516530      0.366950     Biso  1.000000 C
   C110       1.0     0.483470      0.781490      0.366950     Biso  1.000000 C
   C111       1.0     0.218510      0.701980      0.366950     Biso  1.000000 C
   C112       1.0     0.516530      0.298020      0.633050     Biso  1.000000 C
   C113       1.0     0.781490      0.483470      0.633050     Biso  1.000000 C
   C114       1.0     0.701980      0.218510      0.633050     Biso  1.000000 C
   C115       1.0     0.964687      0.849863      0.700283     Biso  1.000000 C
   C116       1.0     0.150137      0.114823      0.700283     Biso  1.000000 C
   C117       1.0     0.885177      0.035313      0.700283     Biso  1.000000 C
   C118       1.0     0.183197      0.631353      0.966383     Biso  1.000000 C
   C119       1.0     0.448157      0.816803      0.966383     Biso  1.000000 C
   C120       1.0     0.368647      0.551843      0.966383     Biso  1.000000 C
   C121       1.0     0.631353      0.183197      0.033617     Biso  1.000000 C
   C122       1.0     0.816803      0.448157      0.033617     Biso  1.000000 C
   C123       1.0     0.551843      0.368647      0.033617     Biso  1.000000 C
   C124       1.0     0.849863      0.964687      0.299717     Biso  1.000000 C
   C125       1.0     0.114823      0.150137      0.299717     Biso  1.000000 C
   C126       1.0     0.035313      0.885177      0.299717     Biso  1.000000 C
   C127       1.0     0.321240      0.518470      0.352310     Biso  1.000000 C
   C128       1.0     0.481530      0.802770      0.352310     Biso  1.000000 C
   C129       1.0     0.197230      0.678760      0.352310     Biso  1.000000 C
   C130       1.0     0.518470      0.321240      0.647690     Biso  1.000000 C
   C131       1.0     0.802770      0.481530      0.647690     Biso  1.000000 C
   C132       1.0     0.678760      0.197230      0.647690     Biso  1.000000 C
   C133       1.0     0.987907      0.851803      0.685643     Biso  1.000000 C
   C134       1.0     0.148197      0.136103      0.685643     Biso  1.000000 C
   C135       1.0     0.863897      0.012093      0.685643     Biso  1.000000 C
   C136       1.0     0.185137      0.654573      0.981023     Biso  1.000000 C
   C137       1.0     0.469437      0.814863      0.981023     Biso  1.000000 C
   C138       1.0     0.345427      0.530563      0.981023     Biso  1.000000 C
   C139       1.0     0.654573      0.185137      0.018977     Biso  1.000000 C
   C140       1.0     0.814863      0.469437      0.018977     Biso  1.000000 C
   C141       1.0     0.530563      0.345427      0.018977     Biso  1.000000 C
   C142       1.0     0.851803      0.987907      0.314357     Biso  1.000000 C
   C143       1.0     0.136103      0.148197      0.314357     Biso  1.000000 C
   C144       1.0     0.012093      0.863897      0.314357     Biso  1.000000 C
   C145       1.0     0.344660      0.545550      0.346480     Biso  1.000000 C
   C146       1.0     0.454450      0.799110      0.346480     Biso  1.000000 C
   C147       1.0     0.200890      0.655340      0.346480     Biso  1.000000 C
   C148       1.0     0.545550      0.344660      0.653520     Biso  1.000000 C
   C149       1.0     0.799110      0.454450      0.653520     Biso  1.000000 C
   C150       1.0     0.655340      0.200890      0.653520     Biso  1.000000 C
   C151       1.0     0.011327      0.878883      0.679813     Biso  1.000000 C
   C152       1.0     0.121117      0.132443      0.679813     Biso  1.000000 C
   C153       1.0     0.867557      0.988673      0.679813     Biso  1.000000 C
   C154       1.0     0.212217      0.677993      0.986853     Biso  1.000000 C
   C155       1.0     0.465777      0.787783      0.986853     Biso  1.000000 C
   C156       1.0     0.322007      0.534223      0.986853     Biso  1.000000 C
   C157       1.0     0.677993      0.212217      0.013147     Biso  1.000000 C
   C158       1.0     0.787783      0.465777      0.013147     Biso  1.000000 C
   C159       1.0     0.534223      0.322007      0.013147     Biso  1.000000 C
   C160       1.0     0.878883      0.011327      0.320187     Biso  1.000000 C
   C161       1.0     0.132443      0.121117      0.320187     Biso  1.000000 C
   C162       1.0     0.988673      0.867557      0.320187     Biso  1.000000 C
   C163       1.0     0.321880      0.492260      0.345540     Biso  1.000000 C
   C164       1.0     0.507740      0.829620      0.345540     Biso  1.000000 C
   C165       1.0     0.170380      0.678120      0.345540     Biso  1.000000 C
   C166       1.0     0.492260      0.321880      0.654460     Biso  1.000000 C
   C167       1.0     0.829620      0.507740      0.654460     Biso  1.000000 C
   C168       1.0     0.678120      0.170380      0.654460     Biso  1.000000 C
   C169       1.0     0.988547      0.825593      0.678873     Biso  1.000000 C
   C170       1.0     0.174407      0.162953      0.678873     Biso  1.000000 C
   C171       1.0     0.837047      0.011453      0.678873     Biso  1.000000 C
   C172       1.0     0.158927      0.655213      0.987793     Biso  1.000000 C
   C173       1.0     0.496287      0.841073      0.987793     Biso  1.000000 C
   C174       1.0     0.344787      0.503713      0.987793     Biso  1.000000 C
   C175       1.0     0.655213      0.158927      0.012207     Biso  1.000000 C
   C176       1.0     0.841073      0.496287      0.012207     Biso  1.000000 C
   C177       1.0     0.503713      0.344787      0.012207     Biso  1.000000 C
   C178       1.0     0.825593      0.988547      0.321127     Biso  1.000000 C
   C179       1.0     0.162953      0.174407      0.321127     Biso  1.000000 C
   C180       1.0     0.011453      0.837047      0.321127     Biso  1.000000 C
   C181       1.0     0.375920      0.474610      0.324380     Biso  1.000000 C
   C182       1.0     0.525390      0.901310      0.324380     Biso  1.000000 C
   C183       1.0     0.098690      0.624080      0.324380     Biso  1.000000 C
   C184       1.0     0.474610      0.375920      0.675620     Biso  1.000000 C
   C185       1.0     0.901310      0.525390      0.675620     Biso  1.000000 C
   C186       1.0     0.624080      0.098690      0.675620     Biso  1.000000 C
   C187       1.0     0.042587      0.807943      0.657713     Biso  1.000000 C
   C188       1.0     0.192057      0.234643      0.657713     Biso  1.000000 C
   C189       1.0     0.765357      0.957413      0.657713     Biso  1.000000 C
   C190       1.0     0.141277      0.709253      0.008953     Biso  1.000000 C
   C191       1.0     0.567977      0.858723      0.008953     Biso  1.000000 C
   C192       1.0     0.290747      0.432023      0.008953     Biso  1.000000 C
   C193       1.0     0.709253      0.141277      0.991047     Biso  1.000000 C
   C194       1.0     0.858723      0.567977      0.991047     Biso  1.000000 C
   C195       1.0     0.432023      0.290747      0.991047     Biso  1.000000 C
   C196       1.0     0.807943      0.042587      0.342287     Biso  1.000000 C
   C197       1.0     0.234643      0.192057      0.342287     Biso  1.000000 C
   C198       1.0     0.957413      0.765357      0.342287     Biso  1.000000 C
   C199       1.0     0.350430      0.469780      0.336370     Biso  1.000000 C
   C200       1.0     0.530220      0.880650      0.336370     Biso  1.000000 C
   C201       1.0     0.119350      0.649570      0.336370     Biso  1.000000 C
   C202       1.0     0.469780      0.350430      0.663630     Biso  1.000000 C
   C203       1.0     0.880650      0.530220      0.663630     Biso  1.000000 C
   C204       1.0     0.649570      0.119350      0.663630     Biso  1.000000 C
   C205       1.0     0.017097      0.803113      0.669703     Biso  1.000000 C
   C206       1.0     0.196887      0.213983      0.669703     Biso  1.000000 C
   C207       1.0     0.786017      0.982903      0.669703     Biso  1.000000 C
   C208       1.0     0.136447      0.683763      0.996963     Biso  1.000000 C
   C209       1.0     0.547317      0.863553      0.996963     Biso  1.000000 C
   C210       1.0     0.316237      0.452683      0.996963     Biso  1.000000 C
   C211       1.0     0.683763      0.136447      0.003037     Biso  1.000000 C
   C212       1.0     0.863553      0.547317      0.003037     Biso  1.000000 C
   C213       1.0     0.452683      0.316237      0.003037     Biso  1.000000 C
   C214       1.0     0.803113      0.017097      0.330297     Biso  1.000000 C
   C215       1.0     0.213983      0.196887      0.330297     Biso  1.000000 C
   C216       1.0     0.982903      0.786017      0.330297     Biso  1.000000 C
   C217       1.0     0.331600      0.442650      0.347230     Biso  1.000000 C
   C218       1.0     0.557350      0.888950      0.347230     Biso  1.000000 C
   C219       1.0     0.111050      0.668400      0.347230     Biso  1.000000 C
   C220       1.0     0.442650      0.331600      0.652770     Biso  1.000000 C
   C221       1.0     0.888950      0.557350      0.652770     Biso  1.000000 C
   C222       1.0     0.668400      0.111050      0.652770     Biso  1.000000 C
   C223       1.0     0.998267      0.775983      0.680563     Biso  1.000000 C
   C224       1.0     0.224017      0.222283      0.680563     Biso  1.000000 C
   C225       1.0     0.777717      0.001733      0.680563     Biso  1.000000 C
   C226       1.0     0.109317      0.664933      0.986103     Biso  1.000000 C
   C227       1.0     0.555617      0.890683      0.986103     Biso  1.000000 C
   C228       1.0     0.335067      0.444383      0.986103     Biso  1.000000 C
   C229       1.0     0.664933      0.109317      0.013897     Biso  1.000000 C
   C230       1.0     0.890683      0.555617      0.013897     Biso  1.000000 C
   C231       1.0     0.444383      0.335067      0.013897     Biso  1.000000 C
   C232       1.0     0.775983      0.998267      0.319437     Biso  1.000000 C
   C233       1.0     0.222283      0.224017      0.319437     Biso  1.000000 C
   C234       1.0     0.001733      0.777717      0.319437     Biso  1.000000 C
   C235       1.0     0.338320      0.420930      0.346020     Biso  1.000000 C
   C236       1.0     0.579070      0.917390      0.346020     Biso  1.000000 C
   C237       1.0     0.082610      0.661680      0.346020     Biso  1.000000 C
   C238       1.0     0.420930      0.338320      0.653980     Biso  1.000000 C
   C239       1.0     0.917390      0.579070      0.653980     Biso  1.000000 C
   C240       1.0     0.661680      0.082610      0.653980     Biso  1.000000 C
   C241       1.0     0.004987      0.754263      0.679353     Biso  1.000000 C
   C242       1.0     0.245737      0.250723      0.679353     Biso  1.000000 C
   C243       1.0     0.749277      0.995013      0.679353     Biso  1.000000 C
   C244       1.0     0.087597      0.671653      0.987313     Biso  1.000000 C
   C245       1.0     0.584057      0.912403      0.987313     Biso  1.000000 C
   C246       1.0     0.328347      0.415943      0.987313     Biso  1.000000 C
   C247       1.0     0.671653      0.087597      0.012687     Biso  1.000000 C
   C248       1.0     0.912403      0.584057      0.012687     Biso  1.000000 C
   C249       1.0     0.415943      0.328347      0.012687     Biso  1.000000 C
   C250       1.0     0.754263      0.004987      0.320647     Biso  1.000000 C
   C251       1.0     0.250723      0.245737      0.320647     Biso  1.000000 C
   C252       1.0     0.995013      0.749277      0.320647     Biso  1.000000 C
   C253       1.0     0.363970      0.425840      0.334130     Biso  1.000000 C
   C254       1.0     0.574160      0.938130      0.334130     Biso  1.000000 C
   C255       1.0     0.061870      0.636030      0.334130     Biso  1.000000 C
   C256       1.0     0.425840      0.363970      0.665870     Biso  1.000000 C
   C257       1.0     0.938130      0.574160      0.665870     Biso  1.000000 C
   C258       1.0     0.636030      0.061870      0.665870     Biso  1.000000 C
   C259       1.0     0.030637      0.759173      0.667463     Biso  1.000000 C
   C260       1.0     0.240827      0.271463      0.667463     Biso  1.000000 C
   C261       1.0     0.728537      0.969363      0.667463     Biso  1.000000 C
   C262       1.0     0.092507      0.697303      0.999203     Biso  1.000000 C
   C263       1.0     0.604797      0.907493      0.999203     Biso  1.000000 C
   C264       1.0     0.302697      0.395203      0.999203     Biso  1.000000 C
   C265       1.0     0.697303      0.092507      0.000797     Biso  1.000000 C
   C266       1.0     0.907493      0.604797      0.000797     Biso  1.000000 C
   C267       1.0     0.395203      0.302697      0.000797     Biso  1.000000 C
   C268       1.0     0.759173      0.030637      0.332537     Biso  1.000000 C
   C269       1.0     0.271463      0.240827      0.332537     Biso  1.000000 C
   C270       1.0     0.969363      0.728537      0.332537     Biso  1.000000 C
   C271       1.0     0.382710      0.452900      0.323120     Biso  1.000000 C
   C272       1.0     0.547100      0.929810      0.323120     Biso  1.000000 C
   C273       1.0     0.070190      0.617290      0.323120     Biso  1.000000 C
   C274       1.0     0.452900      0.382710      0.676880     Biso  1.000000 C
   C275       1.0     0.929810      0.547100      0.676880     Biso  1.000000 C
   C276       1.0     0.617290      0.070190      0.676880     Biso  1.000000 C
   C277       1.0     0.049377      0.786233      0.656453     Biso  1.000000 C
   C278       1.0     0.213767      0.263143      0.656453     Biso  1.000000 C
   C279       1.0     0.736857      0.950623      0.656453     Biso  1.000000 C
   C280       1.0     0.119567      0.716043      0.010213     Biso  1.000000 C
   C281       1.0     0.596477      0.880433      0.010213     Biso  1.000000 C
   C282       1.0     0.283957      0.403523      0.010213     Biso  1.000000 C
   C283       1.0     0.716043      0.119567      0.989787     Biso  1.000000 C
   C284       1.0     0.880433      0.596477      0.989787     Biso  1.000000 C
   C285       1.0     0.403523      0.283957      0.989787     Biso  1.000000 C
   C286       1.0     0.786233      0.049377      0.343547     Biso  1.000000 C
   C287       1.0     0.263143      0.213767      0.343547     Biso  1.000000 C
   C288       1.0     0.950623      0.736857      0.343547     Biso  1.000000 C
   C289       1.0     0.385560      0.359150      0.333333     Biso  1.000000 C
   C290       1.0     0.640850      0.026410      0.333333     Biso  1.000000 C
   C291       1.0     0.973590      0.614440      0.333333     Biso  1.000000 C
   C292       1.0     0.359150      0.385560      0.666667     Biso  1.000000 C
   C293       1.0     0.026410      0.640850      0.666667     Biso  1.000000 C
   C294       1.0     0.614440      0.973590      0.666667     Biso  1.000000 C
   C295       1.0     0.052227      0.692483      0.666667     Biso  1.000000 C
   C296       1.0     0.307517      0.359743      0.666667     Biso  1.000000 C
   C297       1.0     0.640257      0.947773      0.666667     Biso  1.000000 C
   C298       1.0     0.025817      0.718893      0.000000     Biso  1.000000 C
   C299       1.0     0.693077      0.974183      0.000000     Biso  1.000000 C
   C300       1.0     0.281107      0.306923      0.000000     Biso  1.000000 C
   C301       1.0     0.718893      0.025817      0.000000     Biso  1.000000 C
   C302       1.0     0.974183      0.693077      0.000000     Biso  1.000000 C
   C303       1.0     0.306923      0.281107      0.000000     Biso  1.000000 C
   C304       1.0     0.692483      0.052227      0.333333     Biso  1.000000 C
   C305       1.0     0.359743      0.307517      0.333333     Biso  1.000000 C
   C306       1.0     0.947773      0.640257      0.333333     Biso  1.000000 C
   C307       1.0     0.356930      0.425240      0.626030     Biso  1.000000 C
   C308       1.0     0.574760      0.931690      0.626030     Biso  1.000000 C
   C309       1.0     0.068310      0.643070      0.626030     Biso  1.000000 C
   C310       1.0     0.425240      0.356930      0.373970     Biso  1.000000 C
   C311       1.0     0.931690      0.574760      0.373970     Biso  1.000000 C
   C312       1.0     0.643070      0.068310      0.373970     Biso  1.000000 C
   C313       1.0     0.023597      0.758573      0.959363     Biso  1.000000 C
   C314       1.0     0.241427      0.265023      0.959363     Biso  1.000000 C
   C315       1.0     0.734977      0.976403      0.959363     Biso  1.000000 C
   C316       1.0     0.091907      0.690263      0.707303     Biso  1.000000 C
   C317       1.0     0.598357      0.908093      0.707303     Biso  1.000000 C
   C318       1.0     0.309737      0.401643      0.707303     Biso  1.000000 C
   C319       1.0     0.690263      0.091907      0.292697     Biso  1.000000 C
   C320       1.0     0.908093      0.598357      0.292697     Biso  1.000000 C
   C321       1.0     0.401643      0.309737      0.292697     Biso  1.000000 C
   C322       1.0     0.758573      0.023597      0.040637     Biso  1.000000 C
   C323       1.0     0.265023      0.241427      0.040637     Biso  1.000000 C
   C324       1.0     0.976403      0.734977      0.040637     Biso  1.000000 C
   C325       1.0     0.332620      0.407810      0.642010     Biso  1.000000 C
   C326       1.0     0.592190      0.924810      0.642010     Biso  1.000000 C
   C327       1.0     0.075190      0.667380      0.642010     Biso  1.000000 C
   C328       1.0     0.407810      0.332620      0.357990     Biso  1.000000 C
   C329       1.0     0.924810      0.592190      0.357990     Biso  1.000000 C
   C330       1.0     0.667380      0.075190      0.357990     Biso  1.000000 C
   C331       1.0     0.999287      0.741143      0.975343     Biso  1.000000 C
   C332       1.0     0.258857      0.258143      0.975343     Biso  1.000000 C
   C333       1.0     0.741857      0.000713      0.975343     Biso  1.000000 C
   C334       1.0     0.074477      0.665953      0.691323     Biso  1.000000 C
   C335       1.0     0.591477      0.925523      0.691323     Biso  1.000000 C
   C336       1.0     0.334047      0.408523      0.691323     Biso  1.000000 C
   C337       1.0     0.665953      0.074477      0.308677     Biso  1.000000 C
   C338       1.0     0.925523      0.591477      0.308677     Biso  1.000000 C
   C339       1.0     0.408523      0.334047      0.308677     Biso  1.000000 C
   C340       1.0     0.741143      0.999287      0.024657     Biso  1.000000 C
   C341       1.0     0.258143      0.258857      0.024657     Biso  1.000000 C
   C342       1.0     0.000713      0.741857      0.024657     Biso  1.000000 C
   C343       1.0     0.307590      0.409040      0.636890     Biso  1.000000 C
   C344       1.0     0.590960      0.898550      0.636890     Biso  1.000000 C
   C345       1.0     0.101450      0.692410      0.636890     Biso  1.000000 C
   C346       1.0     0.409040      0.307590      0.363110     Biso  1.000000 C
   C347       1.0     0.898550      0.590960      0.363110     Biso  1.000000 C
   C348       1.0     0.692410      0.101450      0.363110     Biso  1.000000 C
   C349       1.0     0.974257      0.742373      0.970223     Biso  1.000000 C
   C350       1.0     0.257627      0.231883      0.970223     Biso  1.000000 C
   C351       1.0     0.768117      0.025743      0.970223     Biso  1.000000 C
   C352       1.0     0.075707      0.640923      0.696443     Biso  1.000000 C
   C353       1.0     0.565217      0.924293      0.696443     Biso  1.000000 C
   C354       1.0     0.359077      0.434783      0.696443     Biso  1.000000 C
   C355       1.0     0.640923      0.075707      0.303557     Biso  1.000000 C
   C356       1.0     0.924293      0.565217      0.303557     Biso  1.000000 C
   C357       1.0     0.434783      0.359077      0.303557     Biso  1.000000 C
   C358       1.0     0.742373      0.974257      0.029777     Biso  1.000000 C
   C359       1.0     0.231883      0.257627      0.029777     Biso  1.000000 C
   C360       1.0     0.025743      0.768117      0.029777     Biso  1.000000 C
   C361       1.0     0.306180      0.425130      0.615410     Biso  1.000000 C
   C362       1.0     0.574870      0.881050      0.615410     Biso  1.000000 C
   C363       1.0     0.118950      0.693820      0.615410     Biso  1.000000 C
   C364       1.0     0.425130      0.306180      0.384590     Biso  1.000000 C
   C365       1.0     0.881050      0.574870      0.384590     Biso  1.000000 C
   C366       1.0     0.693820      0.118950      0.384590     Biso  1.000000 C
   C367       1.0     0.972847      0.758463      0.948743     Biso  1.000000 C
   C368       1.0     0.241537      0.214383      0.948743     Biso  1.000000 C
   C369       1.0     0.785617      0.027153      0.948743     Biso  1.000000 C
   C370       1.0     0.091797      0.639513      0.717923     Biso  1.000000 C
   C371       1.0     0.547717      0.908203      0.717923     Biso  1.000000 C
   C372       1.0     0.360487      0.452283      0.717923     Biso  1.000000 C
   C373       1.0     0.639513      0.091797      0.282077     Biso  1.000000 C
   C374       1.0     0.908203      0.547717      0.282077     Biso  1.000000 C
   C375       1.0     0.452283      0.360487      0.282077     Biso  1.000000 C
   C376       1.0     0.758463      0.972847      0.051257     Biso  1.000000 C
   C377       1.0     0.214383      0.241537      0.051257     Biso  1.000000 C
   C378       1.0     0.027153      0.785617      0.051257     Biso  1.000000 C
   C379       1.0     0.330080      0.441390      0.598940     Biso  1.000000 C
   C380       1.0     0.558610      0.888690      0.598940     Biso  1.000000 C
   C381       1.0     0.111310      0.669920      0.598940     Biso  1.000000 C
   C382       1.0     0.441390      0.330080      0.401060     Biso  1.000000 C
   C383       1.0     0.888690      0.558610      0.401060     Biso  1.000000 C
   C384       1.0     0.669920      0.111310      0.401060     Biso  1.000000 C
   C385       1.0     0.996747      0.774723      0.932273     Biso  1.000000 C
   C386       1.0     0.225277      0.222023      0.932273     Biso  1.000000 C
   C387       1.0     0.777977      0.003253      0.932273     Biso  1.000000 C
   C388       1.0     0.108057      0.663413      0.734393     Biso  1.000000 C
   C389       1.0     0.555357      0.891943      0.734393     Biso  1.000000 C
   C390       1.0     0.336587      0.444643      0.734393     Biso  1.000000 C
   C391       1.0     0.663413      0.108057      0.265607     Biso  1.000000 C
   C392       1.0     0.891943      0.555357      0.265607     Biso  1.000000 C
   C393       1.0     0.444643      0.336587      0.265607     Biso  1.000000 C
   C394       1.0     0.774723      0.996747      0.067727     Biso  1.000000 C
   C395       1.0     0.222023      0.225277      0.067727     Biso  1.000000 C
   C396       1.0     0.003253      0.777977      0.067727     Biso  1.000000 C
   C397       1.0     0.355500      0.441400      0.604530     Biso  1.000000 C
   C398       1.0     0.558600      0.914100      0.604530     Biso  1.000000 C
   C399       1.0     0.085900      0.644500      0.604530     Biso  1.000000 C
   C400       1.0     0.441400      0.355500      0.395470     Biso  1.000000 C
   C401       1.0     0.914100      0.558600      0.395470     Biso  1.000000 C
   C402       1.0     0.644500      0.085900      0.395470     Biso  1.000000 C
   C403       1.0     0.022167      0.774733      0.937863     Biso  1.000000 C
   C404       1.0     0.225267      0.247433      0.937863     Biso  1.000000 C
   C405       1.0     0.752567      0.977833      0.937863     Biso  1.000000 C
   C406       1.0     0.108067      0.688833      0.728803     Biso  1.000000 C
   C407       1.0     0.580767      0.891933      0.728803     Biso  1.000000 C
   C408       1.0     0.311167      0.419233      0.728803     Biso  1.000000 C
   C409       1.0     0.688833      0.108067      0.271197     Biso  1.000000 C
   C410       1.0     0.891933      0.580767      0.271197     Biso  1.000000 C
   C411       1.0     0.419233      0.311167      0.271197     Biso  1.000000 C
   C412       1.0     0.774733      0.022167      0.062137     Biso  1.000000 C
   C413       1.0     0.247433      0.225267      0.062137     Biso  1.000000 C
   C414       1.0     0.977833      0.752567      0.062137     Biso  1.000000 C
   C415       1.0     0.316180      0.475730      0.579660     Biso  1.000000 C
   C416       1.0     0.524270      0.840450      0.579660     Biso  1.000000 C
   C417       1.0     0.159550      0.683820      0.579660     Biso  1.000000 C
   C418       1.0     0.475730      0.316180      0.420340     Biso  1.000000 C
   C419       1.0     0.840450      0.524270      0.420340     Biso  1.000000 C
   C420       1.0     0.683820      0.159550      0.420340     Biso  1.000000 C
   C421       1.0     0.982847      0.809063      0.912993     Biso  1.000000 C
   C422       1.0     0.190937      0.173783      0.912993     Biso  1.000000 C
   C423       1.0     0.826217      0.017153      0.912993     Biso  1.000000 C
   C424       1.0     0.142397      0.649513      0.753673     Biso  1.000000 C
   C425       1.0     0.507117      0.857603      0.753673     Biso  1.000000 C
   C426       1.0     0.350487      0.492883      0.753673     Biso  1.000000 C
   C427       1.0     0.649513      0.142397      0.246327     Biso  1.000000 C
   C428       1.0     0.857603      0.507117      0.246327     Biso  1.000000 C
   C429       1.0     0.492883      0.350487      0.246327     Biso  1.000000 C
   C430       1.0     0.809063      0.982847      0.087007     Biso  1.000000 C
   C431       1.0     0.173783      0.190937      0.087007     Biso  1.000000 C
   C432       1.0     0.017153      0.826217      0.087007     Biso  1.000000 C
   C433       1.0     0.328520      0.458430      0.576080     Biso  1.000000 C
   C434       1.0     0.541570      0.870090      0.576080     Biso  1.000000 C
   C435       1.0     0.129910      0.671480      0.576080     Biso  1.000000 C
   C436       1.0     0.458430      0.328520      0.423920     Biso  1.000000 C
   C437       1.0     0.870090      0.541570      0.423920     Biso  1.000000 C
   C438       1.0     0.671480      0.129910      0.423920     Biso  1.000000 C
   C439       1.0     0.995187      0.791763      0.909413     Biso  1.000000 C
   C440       1.0     0.208237      0.203423      0.909413     Biso  1.000000 C
   C441       1.0     0.796577      0.004813      0.909413     Biso  1.000000 C
   C442       1.0     0.125097      0.661853      0.757253     Biso  1.000000 C
   C443       1.0     0.536757      0.874903      0.757253     Biso  1.000000 C
   C444       1.0     0.338147      0.463243      0.757253     Biso  1.000000 C
   C445       1.0     0.661853      0.125097      0.242747     Biso  1.000000 C
   C446       1.0     0.874903      0.536757      0.242747     Biso  1.000000 C
   C447       1.0     0.463243      0.338147      0.242747     Biso  1.000000 C
   C448       1.0     0.791763      0.995187      0.090587     Biso  1.000000 C
   C449       1.0     0.203423      0.208237      0.090587     Biso  1.000000 C
   C450       1.0     0.004813      0.796577      0.090587     Biso  1.000000 C
   C451       1.0     0.339130      0.457220      0.550290     Biso  1.000000 C
   C452       1.0     0.542780      0.881910      0.550290     Biso  1.000000 C
   C453       1.0     0.118090      0.660870      0.550290     Biso  1.000000 C
   C454       1.0     0.457220      0.339130      0.449710     Biso  1.000000 C
   C455       1.0     0.881910      0.542780      0.449710     Biso  1.000000 C
   C456       1.0     0.660870      0.118090      0.449710     Biso  1.000000 C
   C457       1.0     0.005797      0.790553      0.883623     Biso  1.000000 C
   C458       1.0     0.209447      0.215243      0.883623     Biso  1.000000 C
   C459       1.0     0.784757      0.994203      0.883623     Biso  1.000000 C
   C460       1.0     0.123887      0.672463      0.783043     Biso  1.000000 C
   C461       1.0     0.548577      0.876113      0.783043     Biso  1.000000 C
   C462       1.0     0.327537      0.451423      0.783043     Biso  1.000000 C
   C463       1.0     0.672463      0.123887      0.216957     Biso  1.000000 C
   C464       1.0     0.876113      0.548577      0.216957     Biso  1.000000 C
   C465       1.0     0.451423      0.327537      0.216957     Biso  1.000000 C
   C466       1.0     0.790553      0.005797      0.116377     Biso  1.000000 C
   C467       1.0     0.215243      0.209447      0.116377     Biso  1.000000 C
   C468       1.0     0.994203      0.784757      0.116377     Biso  1.000000 C
   C469       1.0     0.337330      0.472830      0.528460     Biso  1.000000 C
   C470       1.0     0.527170      0.864500      0.528460     Biso  1.000000 C
   C471       1.0     0.135500      0.662670      0.528460     Biso  1.000000 C
   C472       1.0     0.472830      0.337330      0.471540     Biso  1.000000 C
   C473       1.0     0.864500      0.527170      0.471540     Biso  1.000000 C
   C474       1.0     0.662670      0.135500      0.471540     Biso  1.000000 C
   C475       1.0     0.003997      0.806163      0.861793     Biso  1.000000 C
   C476       1.0     0.193837      0.197833      0.861793     Biso  1.000000 C
   C477       1.0     0.802167      0.996003      0.861793     Biso  1.000000 C
   C478       1.0     0.139497      0.670663      0.804873     Biso  1.000000 C
   C479       1.0     0.531167      0.860503      0.804873     Biso  1.000000 C
   C480       1.0     0.329337      0.468833      0.804873     Biso  1.000000 C
   C481       1.0     0.670663      0.139497      0.195127     Biso  1.000000 C
   C482       1.0     0.860503      0.531167      0.195127     Biso  1.000000 C
   C483       1.0     0.468833      0.329337      0.195127     Biso  1.000000 C
   C484       1.0     0.806163      0.003997      0.138207     Biso  1.000000 C
   C485       1.0     0.197833      0.193837      0.138207     Biso  1.000000 C
   C486       1.0     0.996003      0.802167      0.138207     Biso  1.000000 C
   C487       1.0     0.325020      0.490150      0.532150     Biso  1.000000 C
   C488       1.0     0.509850      0.834870      0.532150     Biso  1.000000 C
   C489       1.0     0.165130      0.674980      0.532150     Biso  1.000000 C
   C490       1.0     0.490150      0.325020      0.467850     Biso  1.000000 C
   C491       1.0     0.834870      0.509850      0.467850     Biso  1.000000 C
   C492       1.0     0.674980      0.165130      0.467850     Biso  1.000000 C
   C493       1.0     0.991687      0.823483      0.865483     Biso  1.000000 C
   C494       1.0     0.176517      0.168203      0.865483     Biso  1.000000 C
   C495       1.0     0.831797      0.008313      0.865483     Biso  1.000000 C
   C496       1.0     0.156817      0.658353      0.801183     Biso  1.000000 C
   C497       1.0     0.501537      0.843183      0.801183     Biso  1.000000 C
   C498       1.0     0.341647      0.498463      0.801183     Biso  1.000000 C
   C499       1.0     0.658353      0.156817      0.198817     Biso  1.000000 C
   C500       1.0     0.843183      0.501537      0.198817     Biso  1.000000 C
   C501       1.0     0.498463      0.341647      0.198817     Biso  1.000000 C
   C502       1.0     0.823483      0.991687      0.134517     Biso  1.000000 C
   C503       1.0     0.168203      0.176517      0.134517     Biso  1.000000 C
   C504       1.0     0.008313      0.831797      0.134517     Biso  1.000000 C
   C505       1.0     0.314350      0.491240      0.557800     Biso  1.000000 C
   C506       1.0     0.508760      0.823110      0.557800     Biso  1.000000 C
   C507       1.0     0.176890      0.685650      0.557800     Biso  1.000000 C
   C508       1.0     0.491240      0.314350      0.442200     Biso  1.000000 C
   C509       1.0     0.823110      0.508760      0.442200     Biso  1.000000 C
   C510       1.0     0.685650      0.176890      0.442200     Biso  1.000000 C
   C511       1.0     0.981017      0.824573      0.891133     Biso  1.000000 C
   C512       1.0     0.175427      0.156443      0.891133     Biso  1.000000 C
   C513       1.0     0.843557      0.018983      0.891133     Biso  1.000000 C
   C514       1.0     0.157907      0.647683      0.775533     Biso  1.000000 C
   C515       1.0     0.489777      0.842093      0.775533     Biso  1.000000 C
   C516       1.0     0.352317      0.510223      0.775533     Biso  1.000000 C
   C517       1.0     0.647683      0.157907      0.224467     Biso  1.000000 C
   C518       1.0     0.842093      0.489777      0.224467     Biso  1.000000 C
   C519       1.0     0.510223      0.352317      0.224467     Biso  1.000000 C
   C520       1.0     0.824573      0.981017      0.108867     Biso  1.000000 C
   C521       1.0     0.156443      0.175427      0.108867     Biso  1.000000 C
   C522       1.0     0.018983      0.843557      0.108867     Biso  1.000000 C
   C523       1.0     0.336010      0.513240      0.487430     Biso  1.000000 C
   C524       1.0     0.486760      0.822770      0.487430     Biso  1.000000 C
   C525       1.0     0.177230      0.663990      0.487430     Biso  1.000000 C
   C526       1.0     0.513240      0.336010      0.512570     Biso  1.000000 C
   C527       1.0     0.822770      0.486760      0.512570     Biso  1.000000 C
   C528       1.0     0.663990      0.177230      0.512570     Biso  1.000000 C
   C529       1.0     0.002677      0.846573      0.820763     Biso  1.000000 C
   C530       1.0     0.153427      0.156103      0.820763     Biso  1.000000 C
   C531       1.0     0.843897      0.997323      0.820763     Biso  1.000000 C
   C532       1.0     0.179907      0.669343      0.845903     Biso  1.000000 C
   C533       1.0     0.489437      0.820093      0.845903     Biso  1.000000 C
   C534       1.0     0.330657      0.510563      0.845903     Biso  1.000000 C
   C535       1.0     0.669343      0.179907      0.154097     Biso  1.000000 C
   C536       1.0     0.820093      0.489437      0.154097     Biso  1.000000 C
   C537       1.0     0.510563      0.330657      0.154097     Biso  1.000000 C
   C538       1.0     0.846573      0.002677      0.179237     Biso  1.000000 C
   C539       1.0     0.156103      0.153427      0.179237     Biso  1.000000 C
   C540       1.0     0.997323      0.843897      0.179237     Biso  1.000000 C
   C541       1.0     0.327990      0.571080      0.433200     Biso  1.000000 C
   C542       1.0     0.428920      0.756910      0.433200     Biso  1.000000 C
   C543       1.0     0.243090      0.672010      0.433200     Biso  1.000000 C
   C544       1.0     0.571080      0.327990      0.566800     Biso  1.000000 C
   C545       1.0     0.756910      0.428920      0.566800     Biso  1.000000 C
   C546       1.0     0.672010      0.243090      0.566800     Biso  1.000000 C
   C547       1.0     0.994657      0.904413      0.766533     Biso  1.000000 C
   C548       1.0     0.095587      0.090243      0.766533     Biso  1.000000 C
   C549       1.0     0.909757      0.005343      0.766533     Biso  1.000000 C
   C550       1.0     0.237747      0.661323      0.900133     Biso  1.000000 C
   C551       1.0     0.423577      0.762253      0.900133     Biso  1.000000 C
   C552       1.0     0.338677      0.576423      0.900133     Biso  1.000000 C
   C553       1.0     0.661323      0.237747      0.099867     Biso  1.000000 C
   C554       1.0     0.762253      0.423577      0.099867     Biso  1.000000 C
   C555       1.0     0.576423      0.338677      0.099867     Biso  1.000000 C
   C556       1.0     0.904413      0.994657      0.233467     Biso  1.000000 C
   C557       1.0     0.090243      0.095587      0.233467     Biso  1.000000 C
   C558       1.0     0.005343      0.909757      0.233467     Biso  1.000000 C
   C559       1.0     0.327460      0.593760      0.416667     Biso  1.000000 C
   C560       1.0     0.406240      0.733700      0.416667     Biso  1.000000 C
   C561       1.0     0.266300      0.672540      0.416667     Biso  1.000000 C
   C562       1.0     0.593760      0.327460      0.583333     Biso  1.000000 C
   C563       1.0     0.733700      0.406240      0.583333     Biso  1.000000 C
   C564       1.0     0.672540      0.266300      0.583333     Biso  1.000000 C
   C565       1.0     0.994127      0.927093      0.750000     Biso  1.000000 C
   C566       1.0     0.072907      0.067033      0.750000     Biso  1.000000 C
   C567       1.0     0.932967      0.005873      0.750000     Biso  1.000000 C
   C568       1.0     0.260427      0.660793      0.916667     Biso  1.000000 C
   C569       1.0     0.400367      0.739573      0.916667     Biso  1.000000 C
   C570       1.0     0.339207      0.599633      0.916667     Biso  1.000000 C
   C571       1.0     0.660793      0.260427      0.083333     Biso  1.000000 C
   C572       1.0     0.739573      0.400367      0.083333     Biso  1.000000 C
   C573       1.0     0.599633      0.339207      0.083333     Biso  1.000000 C
   C574       1.0     0.927093      0.994127      0.250000     Biso  1.000000 C
   C575       1.0     0.067033      0.072907      0.250000     Biso  1.000000 C
   C576       1.0     0.005873      0.932967      0.250000     Biso  1.000000 C
   C577       1.0     0.329250      0.617270      0.430610     Biso  1.000000 C
   C578       1.0     0.382730      0.711980      0.430610     Biso  1.000000 C
   C579       1.0     0.288020      0.670750      0.430610     Biso  1.000000 C
   C580       1.0     0.617270      0.329250      0.569390     Biso  1.000000 C
   C581       1.0     0.711980      0.382730      0.569390     Biso  1.000000 C
   C582       1.0     0.670750      0.288020      0.569390     Biso  1.000000 C
   C583       1.0     0.995917      0.950603      0.763943     Biso  1.000000 C
   C584       1.0     0.049397      0.045313      0.763943     Biso  1.000000 C
   C585       1.0     0.954687      0.004083      0.763943     Biso  1.000000 C
   C586       1.0     0.283937      0.662583      0.902723     Biso  1.000000 C
   C587       1.0     0.378647      0.716063      0.902723     Biso  1.000000 C
   C588       1.0     0.337417      0.621353      0.902723     Biso  1.000000 C
   C589       1.0     0.662583      0.283937      0.097277     Biso  1.000000 C
   C590       1.0     0.716063      0.378647      0.097277     Biso  1.000000 C
   C591       1.0     0.621353      0.337417      0.097277     Biso  1.000000 C
   C592       1.0     0.950603      0.995917      0.236057     Biso  1.000000 C
   C593       1.0     0.045313      0.049397      0.236057     Biso  1.000000 C
   C594       1.0     0.004083      0.954687      0.236057     Biso  1.000000 C
   C595       1.0     0.330880      0.639930      0.415940     Biso  1.000000 C
   C596       1.0     0.360070      0.690950      0.415940     Biso  1.000000 C
   C597       1.0     0.309050      0.669120      0.415940     Biso  1.000000 C
   C598       1.0     0.639930      0.330880      0.584060     Biso  1.000000 C
   C599       1.0     0.690950      0.360070      0.584060     Biso  1.000000 C
   C600       1.0     0.669120      0.309050      0.584060     Biso  1.000000 C
   C601       1.0     0.997547      0.973263      0.749273     Biso  1.000000 C
   C602       1.0     0.026737      0.024283      0.749273     Biso  1.000000 C
   C603       1.0     0.975717      0.002453      0.749273     Biso  1.000000 C
   C604       1.0     0.306597      0.664213      0.917393     Biso  1.000000 C
   C605       1.0     0.357617      0.693403      0.917393     Biso  1.000000 C
   C606       1.0     0.335787      0.642383      0.917393     Biso  1.000000 C
   C607       1.0     0.664213      0.306597      0.082607     Biso  1.000000 C
   C608       1.0     0.693403      0.357617      0.082607     Biso  1.000000 C
   C609       1.0     0.642383      0.335787      0.082607     Biso  1.000000 C
   C610       1.0     0.973263      0.997547      0.250727     Biso  1.000000 C
   C611       1.0     0.024283      0.026737      0.250727     Biso  1.000000 C
   C612       1.0     0.002453      0.975717      0.250727     Biso  1.000000 C
   C613       1.0     0.308670      0.558320      0.454720     Biso  1.000000 C
   C614       1.0     0.441680      0.750350      0.454720     Biso  1.000000 C
   C615       1.0     0.249650      0.691330      0.454720     Biso  1.000000 C
   C616       1.0     0.558320      0.308670      0.545280     Biso  1.000000 C
   C617       1.0     0.750350      0.441680      0.545280     Biso  1.000000 C
   C618       1.0     0.691330      0.249650      0.545280     Biso  1.000000 C
   C619       1.0     0.975337      0.891653      0.788053     Biso  1.000000 C
   C620       1.0     0.108347      0.083683      0.788053     Biso  1.000000 C
   C621       1.0     0.916317      0.024663      0.788053     Biso  1.000000 C
   C622       1.0     0.224987      0.642003      0.878613     Biso  1.000000 C
   C623       1.0     0.417017      0.775013      0.878613     Biso  1.000000 C
   C624       1.0     0.357997      0.582983      0.878613     Biso  1.000000 C
   C625       1.0     0.642003      0.224987      0.121387     Biso  1.000000 C
   C626       1.0     0.775013      0.417017      0.121387     Biso  1.000000 C
   C627       1.0     0.582983      0.357997      0.121387     Biso  1.000000 C
   C628       1.0     0.891653      0.975337      0.211947     Biso  1.000000 C
   C629       1.0     0.083683      0.108347      0.211947     Biso  1.000000 C
   C630       1.0     0.024663      0.916317      0.211947     Biso  1.000000 C
   C631       1.0     0.310770      0.538960      0.471950     Biso  1.000000 C
   C632       1.0     0.461040      0.771810      0.471950     Biso  1.000000 C
   C633       1.0     0.228190      0.689230      0.471950     Biso  1.000000 C
   C634       1.0     0.538960      0.310770      0.528050     Biso  1.000000 C
   C635       1.0     0.771810      0.461040      0.528050     Biso  1.000000 C
   C636       1.0     0.689230      0.228190      0.528050     Biso  1.000000 C
   C637       1.0     0.977437      0.872293      0.805283     Biso  1.000000 C
   C638       1.0     0.127707      0.105143      0.805283     Biso  1.000000 C
   C639       1.0     0.894857      0.022563      0.805283     Biso  1.000000 C
   C640       1.0     0.205627      0.644103      0.861383     Biso  1.000000 C
   C641       1.0     0.438477      0.794373      0.861383     Biso  1.000000 C
   C642       1.0     0.355897      0.561523      0.861383     Biso  1.000000 C
   C643       1.0     0.644103      0.205627      0.138617     Biso  1.000000 C
   C644       1.0     0.794373      0.438477      0.138617     Biso  1.000000 C
   C645       1.0     0.561523      0.355897      0.138617     Biso  1.000000 C
   C646       1.0     0.872293      0.977437      0.194717     Biso  1.000000 C
   C647       1.0     0.105143      0.127707      0.194717     Biso  1.000000 C
   C648       1.0     0.022563      0.894857      0.194717     Biso  1.000000 C
   C649       1.0     0.332280      0.531960      0.467980     Biso  1.000000 C
   C650       1.0     0.468040      0.800320      0.467980     Biso  1.000000 C
   C651       1.0     0.199680      0.667720      0.467980     Biso  1.000000 C
   C652       1.0     0.531960      0.332280      0.532020     Biso  1.000000 C
   C653       1.0     0.800320      0.468040      0.532020     Biso  1.000000 C
   C654       1.0     0.667720      0.199680      0.532020     Biso  1.000000 C
   C655       1.0     0.998947      0.865293      0.801313     Biso  1.000000 C
   C656       1.0     0.134707      0.133653      0.801313     Biso  1.000000 C
   C657       1.0     0.866347      0.001053      0.801313     Biso  1.000000 C
   C658       1.0     0.198627      0.665613      0.865353     Biso  1.000000 C
   C659       1.0     0.466987      0.801373      0.865353     Biso  1.000000 C
   C660       1.0     0.334387      0.533013      0.865353     Biso  1.000000 C
   C661       1.0     0.665613      0.198627      0.134647     Biso  1.000000 C
   C662       1.0     0.801373      0.466987      0.134647     Biso  1.000000 C
   C663       1.0     0.533013      0.334387      0.134647     Biso  1.000000 C
   C664       1.0     0.865293      0.998947      0.198687     Biso  1.000000 C
   C665       1.0     0.133653      0.134707      0.198687     Biso  1.000000 C
   C666       1.0     0.001053      0.866347      0.198687     Biso  1.000000 C
   C667       1.0     0.349100      0.563670      0.428820     Biso  1.000000 C
   C668       1.0     0.436330      0.785430      0.428820     Biso  1.000000 C
   C669       1.0     0.214570      0.650900      0.428820     Biso  1.000000 C
   C670       1.0     0.563670      0.349100      0.571180     Biso  1.000000 C
   C671       1.0     0.785430      0.436330      0.571180     Biso  1.000000 C
   C672       1.0     0.650900      0.214570      0.571180     Biso  1.000000 C
   C673       1.0     0.015767      0.897003      0.762153     Biso  1.000000 C
   C674       1.0     0.102997      0.118763      0.762153     Biso  1.000000 C
   C675       1.0     0.881237      0.984233      0.762153     Biso  1.000000 C
   C676       1.0     0.230337      0.682433      0.904513     Biso  1.000000 C
   C677       1.0     0.452097      0.769663      0.904513     Biso  1.000000 C
   C678       1.0     0.317567      0.547903      0.904513     Biso  1.000000 C
   C679       1.0     0.682433      0.230337      0.095487     Biso  1.000000 C
   C680       1.0     0.769663      0.452097      0.095487     Biso  1.000000 C
   C681       1.0     0.547903      0.317567      0.095487     Biso  1.000000 C
   C682       1.0     0.897003      0.015767      0.237847     Biso  1.000000 C
   C683       1.0     0.118763      0.102997      0.237847     Biso  1.000000 C
   C684       1.0     0.984233      0.881237      0.237847     Biso  1.000000 C
   C685       1.0     0.351100      0.544070      0.445890     Biso  1.000000 C
   C686       1.0     0.455930      0.807030      0.445890     Biso  1.000000 C
   C687       1.0     0.192970      0.648900      0.445890     Biso  1.000000 C
   C688       1.0     0.544070      0.351100      0.554110     Biso  1.000000 C
   C689       1.0     0.807030      0.455930      0.554110     Biso  1.000000 C
   C690       1.0     0.648900      0.192970      0.554110     Biso  1.000000 C
   C691       1.0     0.017767      0.877403      0.779223     Biso  1.000000 C
   C692       1.0     0.122597      0.140363      0.779223     Biso  1.000000 C
   C693       1.0     0.859637      0.982233      0.779223     Biso  1.000000 C
   C694       1.0     0.210737      0.684433      0.887443     Biso  1.000000 C
   C695       1.0     0.473697      0.789263      0.887443     Biso  1.000000 C
   C696       1.0     0.315567      0.526303      0.887443     Biso  1.000000 C
   C697       1.0     0.684433      0.210737      0.112557     Biso  1.000000 C
   C698       1.0     0.789263      0.473697      0.112557     Biso  1.000000 C
   C699       1.0     0.526303      0.315567      0.112557     Biso  1.000000 C
   C700       1.0     0.877403      0.017767      0.220777     Biso  1.000000 C
   C701       1.0     0.140363      0.122597      0.220777     Biso  1.000000 C
   C702       1.0     0.982233      0.859637      0.220777     Biso  1.000000 C
   C703       1.0     0.365140      0.374640      0.642780     Biso  1.000000 C
   C704       1.0     0.625360      0.990500      0.642780     Biso  1.000000 C
   C705       1.0     0.009500      0.634860      0.642780     Biso  1.000000 C
   C706       1.0     0.374640      0.365140      0.357220     Biso  1.000000 C
   C707       1.0     0.990500      0.625360      0.357220     Biso  1.000000 C
   C708       1.0     0.634860      0.009500      0.357220     Biso  1.000000 C
   C709       1.0     0.031807      0.707973      0.976113     Biso  1.000000 C
   C710       1.0     0.292027      0.323833      0.976113     Biso  1.000000 C
   C711       1.0     0.676167      0.968193      0.976113     Biso  1.000000 C
   C712       1.0     0.041307      0.698473      0.690553     Biso  1.000000 C
   C713       1.0     0.657167      0.958693      0.690553     Biso  1.000000 C
   C714       1.0     0.301527      0.342833      0.690553     Biso  1.000000 C
   C715       1.0     0.698473      0.041307      0.309447     Biso  1.000000 C
   C716       1.0     0.958693      0.657167      0.309447     Biso  1.000000 C
   C717       1.0     0.342833      0.301527      0.309447     Biso  1.000000 C
   C718       1.0     0.707973      0.031807      0.023887     Biso  1.000000 C
   C719       1.0     0.323833      0.292027      0.023887     Biso  1.000000 C
   C720       1.0     0.968193      0.676167      0.023887     Biso  1.000000 C
   C721       1.0     0.386940      0.367990      0.642530     Biso  1.000000 C
   C722       1.0     0.632010      0.018950      0.642530     Biso  1.000000 C
   C723       1.0     0.981050      0.613060      0.642530     Biso  1.000000 C
   C724       1.0     0.367990      0.386940      0.357470     Biso  1.000000 C
   C725       1.0     0.018950      0.632010      0.357470     Biso  1.000000 C
   C726       1.0     0.613060      0.981050      0.357470     Biso  1.000000 C
   C727       1.0     0.053607      0.701323      0.975863     Biso  1.000000 C
   C728       1.0     0.298677      0.352283      0.975863     Biso  1.000000 C
   C729       1.0     0.647717      0.946393      0.975863     Biso  1.000000 C
   C730       1.0     0.034657      0.720273      0.690803     Biso  1.000000 C
   C731       1.0     0.685617      0.965343      0.690803     Biso  1.000000 C
   C732       1.0     0.279727      0.314383      0.690803     Biso  1.000000 C
   C733       1.0     0.720273      0.034657      0.309197     Biso  1.000000 C
   C734       1.0     0.965343      0.685617      0.309197     Biso  1.000000 C
   C735       1.0     0.314383      0.279727      0.309197     Biso  1.000000 C
   C736       1.0     0.701323      0.053607      0.024137     Biso  1.000000 C
   C737       1.0     0.352283      0.298677      0.024137     Biso  1.000000 C
   C738       1.0     0.946393      0.647717      0.024137     Biso  1.000000 C
   C739       1.0     0.402890      0.371270      0.666110     Biso  1.000000 C
   C740       1.0     0.628730      0.031620      0.666110     Biso  1.000000 C
   C741       1.0     0.968380      0.597110      0.666110     Biso  1.000000 C
   C742       1.0     0.371270      0.402890      0.333890     Biso  1.000000 C
   C743       1.0     0.031620      0.628730      0.333890     Biso  1.000000 C
   C744       1.0     0.597110      0.968380      0.333890     Biso  1.000000 C
   C745       1.0     0.069557      0.704603      0.999443     Biso  1.000000 C
   C746       1.0     0.295397      0.364953      0.999443     Biso  1.000000 C
   C747       1.0     0.635047      0.930443      0.999443     Biso  1.000000 C
   C748       1.0     0.037937      0.736223      0.667223     Biso  1.000000 C
   C749       1.0     0.698287      0.962063      0.667223     Biso  1.000000 C
   C750       1.0     0.263777      0.301713      0.667223     Biso  1.000000 C
   C751       1.0     0.736223      0.037937      0.332777     Biso  1.000000 C
   C752       1.0     0.962063      0.698287      0.332777     Biso  1.000000 C
   C753       1.0     0.301713      0.263777      0.332777     Biso  1.000000 C
   C754       1.0     0.704603      0.069557      0.000557     Biso  1.000000 C
   C755       1.0     0.364953      0.295397      0.000557     Biso  1.000000 C
   C756       1.0     0.930443      0.635047      0.000557     Biso  1.000000 C
   C757       1.0     0.396290      0.380790      0.690070     Biso  1.000000 C
   C758       1.0     0.619210      0.015500      0.690070     Biso  1.000000 C
   C759       1.0     0.984500      0.603710      0.690070     Biso  1.000000 C
   C760       1.0     0.380790      0.396290      0.309930     Biso  1.000000 C
   C761       1.0     0.015500      0.619210      0.309930     Biso  1.000000 C
   C762       1.0     0.603710      0.984500      0.309930     Biso  1.000000 C
   C763       1.0     0.062957      0.714123      0.023403     Biso  1.000000 C
   C764       1.0     0.285877      0.348833      0.023403     Biso  1.000000 C
   C765       1.0     0.651167      0.937043      0.023403     Biso  1.000000 C
   C766       1.0     0.047457      0.729623      0.643263     Biso  1.000000 C
   C767       1.0     0.682167      0.952543      0.643263     Biso  1.000000 C
   C768       1.0     0.270377      0.317833      0.643263     Biso  1.000000 C
   C769       1.0     0.729623      0.047457      0.356737     Biso  1.000000 C
   C770       1.0     0.952543      0.682167      0.356737     Biso  1.000000 C
   C771       1.0     0.317833      0.270377      0.356737     Biso  1.000000 C
   C772       1.0     0.714123      0.062957      0.976597     Biso  1.000000 C
   C773       1.0     0.348833      0.285877      0.976597     Biso  1.000000 C
   C774       1.0     0.937043      0.651167      0.976597     Biso  1.000000 C
   C775       1.0     0.374490      0.387420      0.690360     Biso  1.000000 C
   C776       1.0     0.612580      0.987070      0.690360     Biso  1.000000 C
   C777       1.0     0.012930      0.625510      0.690360     Biso  1.000000 C
   C778       1.0     0.387420      0.374490      0.309640     Biso  1.000000 C
   C779       1.0     0.987070      0.612580      0.309640     Biso  1.000000 C
   C780       1.0     0.625510      0.012930      0.309640     Biso  1.000000 C
   C781       1.0     0.041157      0.720753      0.023693     Biso  1.000000 C
   C782       1.0     0.279247      0.320403      0.023693     Biso  1.000000 C
   C783       1.0     0.679597      0.958843      0.023693     Biso  1.000000 C
   C784       1.0     0.054087      0.707823      0.642973     Biso  1.000000 C
   C785       1.0     0.653737      0.945913      0.642973     Biso  1.000000 C
   C786       1.0     0.292177      0.346263      0.642973     Biso  1.000000 C
   C787       1.0     0.707823      0.054087      0.357027     Biso  1.000000 C
   C788       1.0     0.945913      0.653737      0.357027     Biso  1.000000 C
   C789       1.0     0.346263      0.292177      0.357027     Biso  1.000000 C
   C790       1.0     0.720753      0.041157      0.976307     Biso  1.000000 C
   C791       1.0     0.320403      0.279247      0.976307     Biso  1.000000 C
   C792       1.0     0.958843      0.679597      0.976307     Biso  1.000000 C
   C793       1.0     0.333333      0.390420      0.666667     Biso  1.000000 C
   C794       1.0     0.609580      0.942913      0.666667     Biso  1.000000 C
   C795       1.0     0.057087      0.666667      0.666667     Biso  1.000000 C
   C796       1.0     0.390420      0.333333      0.333333     Biso  1.000000 C
   C797       1.0     0.942913      0.609580      0.333333     Biso  1.000000 C
   C798       1.0     0.666667      0.057087      0.333333     Biso  1.000000 C
   C799       1.0    -0.000000      0.723753      0.000000     Biso  1.000000 C
   C800       1.0     0.276247      0.276247      0.000000     Biso  1.000000 C
   C801       1.0     0.723753      0.000000      0.000000     Biso  1.000000 C
   C802       1.0     0.333333      0.666667      0.959100     Biso  1.000000 C
   C803       1.0     0.666667      0.333333      0.040900     Biso  1.000000 C
   C804       1.0     0.000000      0.000000      0.292433     Biso  1.000000 C
   C805       1.0     0.333333      0.666667      0.374233     Biso  1.000000 C
   C806       1.0     0.666667      0.333333      0.625767     Biso  1.000000 C
   C807       1.0     0.000000      0.000000      0.707567     Biso  1.000000 C
   C808       1.0     0.333333      0.666667      0.904690     Biso  1.000000 C
   C809       1.0     0.666667      0.333333      0.095310     Biso  1.000000 C
   C810       1.0     0.000000      0.000000      0.238023     Biso  1.000000 C
   C811       1.0     0.333333      0.666667      0.428643     Biso  1.000000 C
   C812       1.0     0.666667      0.333333      0.571357     Biso  1.000000 C
   C813       1.0     0.000000      0.000000      0.761977     Biso  1.000000 C
   N1         1.0     0.345850      0.493560      0.339430     Biso  1.000000 N
   N2         1.0     0.506440      0.852290      0.339430     Biso  1.000000 N
   N3         1.0     0.147710      0.654150      0.339430     Biso  1.000000 N
   N4         1.0     0.493560      0.345850      0.660570     Biso  1.000000 N
   N5         1.0     0.852290      0.506440      0.660570     Biso  1.000000 N
   N6         1.0     0.654150      0.147710      0.660570     Biso  1.000000 N
   N7         1.0     0.012517      0.826893      0.672763     Biso  1.000000 N
   N8         1.0     0.173107      0.185623      0.672763     Biso  1.000000 N
   N9         1.0     0.814377      0.987483      0.672763     Biso  1.000000 N
   N10        1.0     0.160227      0.679183      0.993903     Biso  1.000000 N
   N11        1.0     0.518957      0.839773      0.993903     Biso  1.000000 N
   N12        1.0     0.320817      0.481043      0.993903     Biso  1.000000 N
   N13        1.0     0.679183      0.160227      0.006097     Biso  1.000000 N
   N14        1.0     0.839773      0.518957      0.006097     Biso  1.000000 N
   N15        1.0     0.481043      0.320817      0.006097     Biso  1.000000 N
   N16        1.0     0.826893      0.012517      0.327237     Biso  1.000000 N
   N17        1.0     0.185623      0.173107      0.327237     Biso  1.000000 N
   N18        1.0     0.987483      0.814377      0.327237     Biso  1.000000 N
   N19        1.0     0.322670      0.506830      0.510620     Biso  1.000000 N
   N20        1.0     0.493170      0.815840      0.510620     Biso  1.000000 N
   N21        1.0     0.184160      0.677330      0.510620     Biso  1.000000 N
   N22        1.0     0.506830      0.322670      0.489380     Biso  1.000000 N
   N23        1.0     0.815840      0.493170      0.489380     Biso  1.000000 N
   N24        1.0     0.677330      0.184160      0.489380     Biso  1.000000 N
   N25        1.0     0.989337      0.840163      0.843953     Biso  1.000000 N
   N26        1.0     0.159837      0.149173      0.843953     Biso  1.000000 N
   N27        1.0     0.850827      0.010663      0.843953     Biso  1.000000 N
   N28        1.0     0.173497      0.656003      0.822713     Biso  1.000000 N
   N29        1.0     0.482507      0.826503      0.822713     Biso  1.000000 N
   N30        1.0     0.343997      0.517493      0.822713     Biso  1.000000 N
   N31        1.0     0.656003      0.173497      0.177287     Biso  1.000000 N
   N32        1.0     0.826503      0.482507      0.177287     Biso  1.000000 N
   N33        1.0     0.517493      0.343997      0.177287     Biso  1.000000 N
   N34        1.0     0.840163      0.989337      0.156047     Biso  1.000000 N
   N35        1.0     0.149173      0.159837      0.156047     Biso  1.000000 N
   N36        1.0     0.010663      0.850827      0.156047     Biso  1.000000 N
   F1         1.0     0.408100      0.458720      0.312220     Biso  1.000000 F
   F2         1.0     0.541280      0.949380      0.312220     Biso  1.000000 F
   F3         1.0     0.050620      0.591900      0.312220     Biso  1.000000 F
   F4         1.0     0.458720      0.408100      0.687780     Biso  1.000000 F
   F5         1.0     0.949380      0.541280      0.687780     Biso  1.000000 F
   F6         1.0     0.591900      0.050620      0.687780     Biso  1.000000 F
   F7         1.0     0.074767      0.792053      0.645553     Biso  1.000000 F
   F8         1.0     0.207947      0.282713      0.645553     Biso  1.000000 F
   F9         1.0     0.717287      0.925233      0.645553     Biso  1.000000 F
   F10        1.0     0.125387      0.741433      0.021113     Biso  1.000000 F
   F11        1.0     0.616047      0.874613      0.021113     Biso  1.000000 F
   F12        1.0     0.258567      0.383953      0.021113     Biso  1.000000 F
   F13        1.0     0.741433      0.125387      0.978887     Biso  1.000000 F
   F14        1.0     0.874613      0.616047      0.978887     Biso  1.000000 F
   F15        1.0     0.383953      0.258567      0.978887     Biso  1.000000 F
   F16        1.0     0.792053      0.074767      0.354447     Biso  1.000000 F
   F17        1.0     0.282713      0.207947      0.354447     Biso  1.000000 F
   F18        1.0     0.925233      0.717287      0.354447     Biso  1.000000 F
   F19        1.0     0.505040      0.360110      0.271120     Biso  1.000000 F
   F20        1.0     0.639890      0.144930      0.271120     Biso  1.000000 F
   F21        1.0     0.855070      0.494960      0.271120     Biso  1.000000 F
   F22        1.0     0.360110      0.505040      0.728880     Biso  1.000000 F
   F23        1.0     0.144930      0.639890      0.728880     Biso  1.000000 F
   F24        1.0     0.494960      0.855070      0.728880     Biso  1.000000 F
   F25        1.0     0.171707      0.693443      0.604453     Biso  1.000000 F
   F26        1.0     0.306557      0.478263      0.604453     Biso  1.000000 F
   F27        1.0     0.521737      0.828293      0.604453     Biso  1.000000 F
   F28        1.0     0.026777      0.838373      0.062213     Biso  1.000000 F
   F29        1.0     0.811597      0.973223      0.062213     Biso  1.000000 F
   F30        1.0     0.161627      0.188403      0.062213     Biso  1.000000 F
   F31        1.0     0.838373      0.026777      0.937787     Biso  1.000000 F
   F32        1.0     0.973223      0.811597      0.937787     Biso  1.000000 F
   F33        1.0     0.188403      0.161627      0.937787     Biso  1.000000 F
   F34        1.0     0.693443      0.171707      0.395547     Biso  1.000000 F
   F35        1.0     0.478263      0.306557      0.395547     Biso  1.000000 F
   F36        1.0     0.828293      0.521737      0.395547     Biso  1.000000 F
   F37        1.0     0.450920      0.842580      0.960540     Biso  1.000000 F
   F38        1.0     0.157420      0.608340      0.960540     Biso  1.000000 F
   F39        1.0     0.391660      0.549080      0.960540     Biso  1.000000 F
   F40        1.0     0.842580      0.450920      0.039460     Biso  1.000000 F
   F41        1.0     0.608340      0.157420      0.039460     Biso  1.000000 F
   F42        1.0     0.549080      0.391660      0.039460     Biso  1.000000 F
   F43        1.0     0.117587      0.175913      0.293873     Biso  1.000000 F
   F44        1.0     0.824087      0.941673      0.293873     Biso  1.000000 F
   F45        1.0     0.058327      0.882413      0.293873     Biso  1.000000 F
   F46        1.0     0.509247      0.784253      0.372793     Biso  1.000000 F
   F47        1.0     0.275007      0.490753      0.372793     Biso  1.000000 F
   F48        1.0     0.215747      0.724993      0.372793     Biso  1.000000 F
   F49        1.0     0.784253      0.509247      0.627207     Biso  1.000000 F
   F50        1.0     0.490753      0.275007      0.627207     Biso  1.000000 F
   F51        1.0     0.724993      0.215747      0.627207     Biso  1.000000 F
   F52        1.0     0.175913      0.117587      0.706127     Biso  1.000000 F
   F53        1.0     0.941673      0.824087      0.706127     Biso  1.000000 F
   F54        1.0     0.882413      0.058327      0.706127     Biso  1.000000 F
   F55        1.0     0.500960      0.795510      0.891910     Biso  1.000000 F
   F56        1.0     0.204490      0.705450      0.891910     Biso  1.000000 F
   F57        1.0     0.294550      0.499040      0.891910     Biso  1.000000 F
   F58        1.0     0.795510      0.500960      0.108090     Biso  1.000000 F
   F59        1.0     0.705450      0.204490      0.108090     Biso  1.000000 F
   F60        1.0     0.499040      0.294550      0.108090     Biso  1.000000 F
   F61        1.0     0.167627      0.128843      0.225243     Biso  1.000000 F
   F62        1.0     0.871157      0.038783      0.225243     Biso  1.000000 F
   F63        1.0     0.961217      0.832373      0.225243     Biso  1.000000 F
   F64        1.0     0.462177      0.834293      0.441423     Biso  1.000000 F
   F65        1.0     0.372117      0.537823      0.441423     Biso  1.000000 F
   F66        1.0     0.165707      0.627883      0.441423     Biso  1.000000 F
   F67        1.0     0.834293      0.462177      0.558577     Biso  1.000000 F
   F68        1.0     0.537823      0.372117      0.558577     Biso  1.000000 F
   F69        1.0     0.627883      0.165707      0.558577     Biso  1.000000 F
   F70        1.0     0.128843      0.167627      0.774757     Biso  1.000000 F
   F71        1.0     0.038783      0.871157      0.774757     Biso  1.000000 F
   F72        1.0     0.832373      0.961217      0.774757     Biso  1.000000 F
   H1         1.0     0.328300      0.616120      0.350950     Biso  1.000000 H
   H2         1.0     0.383880      0.712180      0.350950     Biso  1.000000 H
   H3         1.0     0.287820      0.671700      0.350950     Biso  1.000000 H
   H4         1.0     0.616120      0.328300      0.649050     Biso  1.000000 H
   H5         1.0     0.712180      0.383880      0.649050     Biso  1.000000 H
   H6         1.0     0.671700      0.287820      0.649050     Biso  1.000000 H
   H7         1.0     0.994967      0.949453      0.684283     Biso  1.000000 H
   H8         1.0     0.050547      0.045513      0.684283     Biso  1.000000 H
   H9         1.0     0.954487      0.005033      0.684283     Biso  1.000000 H
   H10        1.0     0.282787      0.661633      0.982383     Biso  1.000000 H
   H11        1.0     0.378847      0.717213      0.982383     Biso  1.000000 H
   H12        1.0     0.338367      0.621153      0.982383     Biso  1.000000 H
   H13        1.0     0.661633      0.282787      0.017617     Biso  1.000000 H
   H14        1.0     0.717213      0.378847      0.017617     Biso  1.000000 H
   H15        1.0     0.621153      0.338367      0.017617     Biso  1.000000 H
   H16        1.0     0.949453      0.994967      0.315717     Biso  1.000000 H
   H17        1.0     0.045513      0.050547      0.315717     Biso  1.000000 H
   H18        1.0     0.005033      0.954487      0.315717     Biso  1.000000 H
   H19        1.0     0.364360      0.590730      0.352930     Biso  1.000000 H
   H20        1.0     0.409270      0.773630      0.352930     Biso  1.000000 H
   H21        1.0     0.226370      0.635640      0.352930     Biso  1.000000 H
   H22        1.0     0.590730      0.364360      0.647070     Biso  1.000000 H
   H23        1.0     0.773630      0.409270      0.647070     Biso  1.000000 H
   H24        1.0     0.635640      0.226370      0.647070     Biso  1.000000 H
   H25        1.0     0.031027      0.924063      0.686263     Biso  1.000000 H
   H26        1.0     0.075937      0.106963      0.686263     Biso  1.000000 H
   H27        1.0     0.893037      0.968973      0.686263     Biso  1.000000 H
   H28        1.0     0.257397      0.697693      0.980403     Biso  1.000000 H
   H29        1.0     0.440297      0.742603      0.980403     Biso  1.000000 H
   H30        1.0     0.302307      0.559703      0.980403     Biso  1.000000 H
   H31        1.0     0.697693      0.257397      0.019597     Biso  1.000000 H
   H32        1.0     0.742603      0.440297      0.019597     Biso  1.000000 H
   H33        1.0     0.559703      0.302307      0.019597     Biso  1.000000 H
   H34        1.0     0.924063      0.031027      0.313737     Biso  1.000000 H
   H35        1.0     0.106963      0.075937      0.313737     Biso  1.000000 H
   H36        1.0     0.968973      0.893037      0.313737     Biso  1.000000 H
   H37        1.0     0.281780      0.539200      0.389690     Biso  1.000000 H
   H38        1.0     0.460800      0.742580      0.389690     Biso  1.000000 H
   H39        1.0     0.257420      0.718220      0.389690     Biso  1.000000 H
   H40        1.0     0.539200      0.281780      0.610310     Biso  1.000000 H
   H41        1.0     0.742580      0.460800      0.610310     Biso  1.000000 H
   H42        1.0     0.718220      0.257420      0.610310     Biso  1.000000 H
   H43        1.0     0.948447      0.872533      0.723023     Biso  1.000000 H
   H44        1.0     0.127467      0.075913      0.723023     Biso  1.000000 H
   H45        1.0     0.924087      0.051553      0.723023     Biso  1.000000 H
   H46        1.0     0.205867      0.615113      0.943643     Biso  1.000000 H
   H47        1.0     0.409247      0.794133      0.943643     Biso  1.000000 H
   H48        1.0     0.384887      0.590753      0.943643     Biso  1.000000 H
   H49        1.0     0.615113      0.205867      0.056357     Biso  1.000000 H
   H50        1.0     0.794133      0.409247      0.056357     Biso  1.000000 H
   H51        1.0     0.590753      0.384887      0.056357     Biso  1.000000 H
   H52        1.0     0.872533      0.948447      0.276977     Biso  1.000000 H
   H53        1.0     0.075913      0.127467      0.276977     Biso  1.000000 H
   H54        1.0     0.051553      0.924087      0.276977     Biso  1.000000 H
   H55        1.0     0.362730      0.547680      0.335050     Biso  1.000000 H
   H56        1.0     0.452320      0.815050      0.335050     Biso  1.000000 H
   H57        1.0     0.184950      0.637270      0.335050     Biso  1.000000 H
   H58        1.0     0.547680      0.362730      0.664950     Biso  1.000000 H
   H59        1.0     0.815050      0.452320      0.664950     Biso  1.000000 H
   H60        1.0     0.637270      0.184950      0.664950     Biso  1.000000 H
   H61        1.0     0.029397      0.881013      0.668383     Biso  1.000000 H
   H62        1.0     0.118987      0.148383      0.668383     Biso  1.000000 H
   H63        1.0     0.851617      0.970603      0.668383     Biso  1.000000 H
   H64        1.0     0.214347      0.696063      0.998283     Biso  1.000000 H
   H65        1.0     0.481717      0.785653      0.998283     Biso  1.000000 H
   H66        1.0     0.303937      0.518283      0.998283     Biso  1.000000 H
   H67        1.0     0.696063      0.214347      0.001717     Biso  1.000000 H
   H68        1.0     0.785653      0.481717      0.001717     Biso  1.000000 H
   H69        1.0     0.518283      0.303937      0.001717     Biso  1.000000 H
   H70        1.0     0.881013      0.029397      0.331617     Biso  1.000000 H
   H71        1.0     0.148383      0.118987      0.331617     Biso  1.000000 H
   H72        1.0     0.970603      0.851617      0.331617     Biso  1.000000 H
   H73        1.0     0.302520      0.471930      0.347800     Biso  1.000000 H
   H74        1.0     0.528070      0.830590      0.347800     Biso  1.000000 H
   H75        1.0     0.169410      0.697480      0.347800     Biso  1.000000 H
   H76        1.0     0.471930      0.302520      0.652200     Biso  1.000000 H
   H77        1.0     0.830590      0.528070      0.652200     Biso  1.000000 H
   H78        1.0     0.697480      0.169410      0.652200     Biso  1.000000 H
   H79        1.0     0.969187      0.805263      0.681133     Biso  1.000000 H
   H80        1.0     0.194737      0.163923      0.681133     Biso  1.000000 H
   H81        1.0     0.836077      0.030813      0.681133     Biso  1.000000 H
   H82        1.0     0.138597      0.635853      0.985533     Biso  1.000000 H
   H83        1.0     0.497257      0.861403      0.985533     Biso  1.000000 H
   H84        1.0     0.364147      0.502743      0.985533     Biso  1.000000 H
   H85        1.0     0.635853      0.138597      0.014467     Biso  1.000000 H
   H86        1.0     0.861403      0.497257      0.014467     Biso  1.000000 H
   H87        1.0     0.502743      0.364147      0.014467     Biso  1.000000 H
   H88        1.0     0.805263      0.969187      0.318867     Biso  1.000000 H
   H89        1.0     0.163923      0.194737      0.318867     Biso  1.000000 H
   H90        1.0     0.030813      0.836077      0.318867     Biso  1.000000 H
   H91        1.0     0.390860      0.495540      0.316460     Biso  1.000000 H
   H92        1.0     0.504460      0.895320      0.316460     Biso  1.000000 H
   H93        1.0     0.104680      0.609140      0.316460     Biso  1.000000 H
   H94        1.0     0.495540      0.390860      0.683540     Biso  1.000000 H
   H95        1.0     0.895320      0.504460      0.683540     Biso  1.000000 H
   H96        1.0     0.609140      0.104680      0.683540     Biso  1.000000 H
   H97        1.0     0.057527      0.828873      0.649793     Biso  1.000000 H
   H98        1.0     0.171127      0.228653      0.649793     Biso  1.000000 H
   H99        1.0     0.771347      0.942473      0.649793     Biso  1.000000 H
   H100       1.0     0.162207      0.724193      0.016873     Biso  1.000000 H
   H101       1.0     0.561987      0.837793      0.016873     Biso  1.000000 H
   H102       1.0     0.275807      0.438013      0.016873     Biso  1.000000 H
   H103       1.0     0.724193      0.162207      0.983127     Biso  1.000000 H
   H104       1.0     0.837793      0.561987      0.983127     Biso  1.000000 H
   H105       1.0     0.438013      0.275807      0.983127     Biso  1.000000 H
   H106       1.0     0.828873      0.057527      0.350207     Biso  1.000000 H
   H107       1.0     0.228653      0.171127      0.350207     Biso  1.000000 H
   H108       1.0     0.942473      0.771347      0.350207     Biso  1.000000 H
   H109       1.0     0.312130      0.438210      0.357450     Biso  1.000000 H
   H110       1.0     0.561790      0.873920      0.357450     Biso  1.000000 H
   H111       1.0     0.126080      0.687870      0.357450     Biso  1.000000 H
   H112       1.0     0.438210      0.312130      0.642550     Biso  1.000000 H
   H113       1.0     0.873920      0.561790      0.642550     Biso  1.000000 H
   H114       1.0     0.687870      0.126080      0.642550     Biso  1.000000 H
   H115       1.0     0.978797      0.771543      0.690783     Biso  1.000000 H
   H116       1.0     0.228457      0.207253      0.690783     Biso  1.000000 H
   H117       1.0     0.792747      0.021203      0.690783     Biso  1.000000 H
   H118       1.0     0.104877      0.645463      0.975883     Biso  1.000000 H
   H119       1.0     0.540587      0.895123      0.975883     Biso  1.000000 H
   H120       1.0     0.354537      0.459413      0.975883     Biso  1.000000 H
   H121       1.0     0.645463      0.104877      0.024117     Biso  1.000000 H
   H122       1.0     0.895123      0.540587      0.024117     Biso  1.000000 H
   H123       1.0     0.459413      0.354537      0.024117     Biso  1.000000 H
   H124       1.0     0.771543      0.978797      0.309217     Biso  1.000000 H
   H125       1.0     0.207253      0.228457      0.309217     Biso  1.000000 H
   H126       1.0     0.021203      0.792747      0.309217     Biso  1.000000 H
   H127       1.0     0.323540      0.400270      0.354580     Biso  1.000000 H
   H128       1.0     0.599730      0.923270      0.354580     Biso  1.000000 H
   H129       1.0     0.076730      0.676460      0.354580     Biso  1.000000 H
   H130       1.0     0.400270      0.323540      0.645420     Biso  1.000000 H
   H131       1.0     0.923270      0.599730      0.645420     Biso  1.000000 H
   H132       1.0     0.676460      0.076730      0.645420     Biso  1.000000 H
   H133       1.0     0.990207      0.733603      0.687913     Biso  1.000000 H
   H134       1.0     0.266397      0.256603      0.687913     Biso  1.000000 H
   H135       1.0     0.743397      0.009793      0.687913     Biso  1.000000 H
   H136       1.0     0.066937      0.656873      0.978753     Biso  1.000000 H
   H137       1.0     0.589937      0.933063      0.978753     Biso  1.000000 H
   H138       1.0     0.343127      0.410063      0.978753     Biso  1.000000 H
   H139       1.0     0.656873      0.066937      0.021247     Biso  1.000000 H
   H140       1.0     0.933063      0.589937      0.021247     Biso  1.000000 H
   H141       1.0     0.410063      0.343127      0.021247     Biso  1.000000 H
   H142       1.0     0.733603      0.990207      0.312087     Biso  1.000000 H
   H143       1.0     0.256603      0.266397      0.312087     Biso  1.000000 H
   H144       1.0     0.009793      0.743397      0.312087     Biso  1.000000 H
   H145       1.0     0.377330      0.426990      0.630300     Biso  1.000000 H
   H146       1.0     0.573010      0.950340      0.630300     Biso  1.000000 H
   H147       1.0     0.049660      0.622670      0.630300     Biso  1.000000 H
   H148       1.0     0.426990      0.377330      0.369700     Biso  1.000000 H
   H149       1.0     0.950340      0.573010      0.369700     Biso  1.000000 H
   H150       1.0     0.622670      0.049660      0.369700     Biso  1.000000 H
   H151       1.0     0.043997      0.760323      0.963633     Biso  1.000000 H
   H152       1.0     0.239677      0.283673      0.963633     Biso  1.000000 H
   H153       1.0     0.716327      0.956003      0.963633     Biso  1.000000 H
   H154       1.0     0.093657      0.710663      0.703033     Biso  1.000000 H
   H155       1.0     0.617007      0.906343      0.703033     Biso  1.000000 H
   H156       1.0     0.289337      0.382993      0.703033     Biso  1.000000 H
   H157       1.0     0.710663      0.093657      0.296967     Biso  1.000000 H
   H158       1.0     0.906343      0.617007      0.296967     Biso  1.000000 H
   H159       1.0     0.382993      0.289337      0.296967     Biso  1.000000 H
   H160       1.0     0.760323      0.043997      0.036367     Biso  1.000000 H
   H161       1.0     0.283673      0.239677      0.036367     Biso  1.000000 H
   H162       1.0     0.956003      0.716327      0.036367     Biso  1.000000 H
   H163       1.0     0.288850      0.397110      0.649460     Biso  1.000000 H
   H164       1.0     0.602890      0.891740      0.649460     Biso  1.000000 H
   H165       1.0     0.108260      0.711150      0.649460     Biso  1.000000 H
   H166       1.0     0.397110      0.288850      0.350540     Biso  1.000000 H
   H167       1.0     0.891740      0.602890      0.350540     Biso  1.000000 H
   H168       1.0     0.711150      0.108260      0.350540     Biso  1.000000 H
   H169       1.0     0.955517      0.730443      0.982793     Biso  1.000000 H
   H170       1.0     0.269557      0.225073      0.982793     Biso  1.000000 H
   H171       1.0     0.774927      0.044483      0.982793     Biso  1.000000 H
   H172       1.0     0.063777      0.622183      0.683873     Biso  1.000000 H
   H173       1.0     0.558407      0.936223      0.683873     Biso  1.000000 H
   H174       1.0     0.377817      0.441593      0.683873     Biso  1.000000 H
   H175       1.0     0.622183      0.063777      0.316127     Biso  1.000000 H
   H176       1.0     0.936223      0.558407      0.316127     Biso  1.000000 H
   H177       1.0     0.441593      0.377817      0.316127     Biso  1.000000 H
   H178       1.0     0.730443      0.955517      0.017207     Biso  1.000000 H
   H179       1.0     0.225073      0.269557      0.017207     Biso  1.000000 H
   H180       1.0     0.044483      0.774927      0.017207     Biso  1.000000 H
   H181       1.0     0.286260      0.424670      0.611560     Biso  1.000000 H
   H182       1.0     0.575330      0.861590      0.611560     Biso  1.000000 H
   H183       1.0     0.138410      0.713740      0.611560     Biso  1.000000 H
   H184       1.0     0.424670      0.286260      0.388440     Biso  1.000000 H
   H185       1.0     0.861590      0.575330      0.388440     Biso  1.000000 H
   H186       1.0     0.713740      0.138410      0.388440     Biso  1.000000 H
   H187       1.0     0.952927      0.758003      0.944893     Biso  1.000000 H
   H188       1.0     0.241997      0.194923      0.944893     Biso  1.000000 H
   H189       1.0     0.805077      0.047073      0.944893     Biso  1.000000 H
   H190       1.0     0.091337      0.619593      0.721773     Biso  1.000000 H
   H191       1.0     0.528257      0.908663      0.721773     Biso  1.000000 H
   H192       1.0     0.380407      0.471743      0.721773     Biso  1.000000 H
   H193       1.0     0.619593      0.091337      0.278227     Biso  1.000000 H
   H194       1.0     0.908663      0.528257      0.278227     Biso  1.000000 H
   H195       1.0     0.471743      0.380407      0.278227     Biso  1.000000 H
   H196       1.0     0.758003      0.952927      0.055107     Biso  1.000000 H
   H197       1.0     0.194923      0.241997      0.055107     Biso  1.000000 H
   H198       1.0     0.047073      0.805077      0.055107     Biso  1.000000 H
   H199       1.0     0.374480      0.454430      0.592570     Biso  1.000000 H
   H200       1.0     0.545570      0.920050      0.592570     Biso  1.000000 H
   H201       1.0     0.079950      0.625520      0.592570     Biso  1.000000 H
   H202       1.0     0.454430      0.374480      0.407430     Biso  1.000000 H
   H203       1.0     0.920050      0.545570      0.407430     Biso  1.000000 H
   H204       1.0     0.625520      0.079950      0.407430     Biso  1.000000 H
   H205       1.0     0.041147      0.787763      0.925903     Biso  1.000000 H
   H206       1.0     0.212237      0.253383      0.925903     Biso  1.000000 H
   H207       1.0     0.746617      0.958853      0.925903     Biso  1.000000 H
   H208       1.0     0.121097      0.707813      0.740763     Biso  1.000000 H
   H209       1.0     0.586717      0.878903      0.740763     Biso  1.000000 H
   H210       1.0     0.292187      0.413283      0.740763     Biso  1.000000 H
   H211       1.0     0.707813      0.121097      0.259237     Biso  1.000000 H
   H212       1.0     0.878903      0.586717      0.259237     Biso  1.000000 H
   H213       1.0     0.413283      0.292187      0.259237     Biso  1.000000 H
   H214       1.0     0.787763      0.041147      0.074097     Biso  1.000000 H
   H215       1.0     0.253383      0.212237      0.074097     Biso  1.000000 H
   H216       1.0     0.958853      0.746617      0.074097     Biso  1.000000 H
   H217       1.0     0.348410      0.443780      0.546940     Biso  1.000000 H
   H218       1.0     0.556220      0.904630      0.546940     Biso  1.000000 H
   H219       1.0     0.095370      0.651590      0.546940     Biso  1.000000 H
   H220       1.0     0.443780      0.348410      0.453060     Biso  1.000000 H
   H221       1.0     0.904630      0.556220      0.453060     Biso  1.000000 H
   H222       1.0     0.651590      0.095370      0.453060     Biso  1.000000 H
   H223       1.0     0.015077      0.777113      0.880273     Biso  1.000000 H
   H224       1.0     0.222887      0.237963      0.880273     Biso  1.000000 H
   H225       1.0     0.762037      0.984923      0.880273     Biso  1.000000 H
   H226       1.0     0.110447      0.681743      0.786393     Biso  1.000000 H
   H227       1.0     0.571297      0.889553      0.786393     Biso  1.000000 H
   H228       1.0     0.318257      0.428703      0.786393     Biso  1.000000 H
   H229       1.0     0.681743      0.110447      0.213607     Biso  1.000000 H
   H230       1.0     0.889553      0.571297      0.213607     Biso  1.000000 H
   H231       1.0     0.428703      0.318257      0.213607     Biso  1.000000 H
   H232       1.0     0.777113      0.015077      0.119727     Biso  1.000000 H
   H233       1.0     0.237963      0.222887      0.119727     Biso  1.000000 H
   H234       1.0     0.984923      0.762037      0.119727     Biso  1.000000 H
   H235       1.0     0.345190      0.470830      0.508840     Biso  1.000000 H
   H236       1.0     0.529170      0.874360      0.508840     Biso  1.000000 H
   H237       1.0     0.125640      0.654810      0.508840     Biso  1.000000 H
   H238       1.0     0.470830      0.345190      0.491160     Biso  1.000000 H
   H239       1.0     0.874360      0.529170      0.491160     Biso  1.000000 H
   H240       1.0     0.654810      0.125640      0.491160     Biso  1.000000 H
   H241       1.0     0.011857      0.804163      0.842173     Biso  1.000000 H
   H242       1.0     0.195837      0.207693      0.842173     Biso  1.000000 H
   H243       1.0     0.792307      0.988143      0.842173     Biso  1.000000 H
   H244       1.0     0.137497      0.678523      0.824493     Biso  1.000000 H
   H245       1.0     0.541027      0.862503      0.824493     Biso  1.000000 H
   H246       1.0     0.321477      0.458973      0.824493     Biso  1.000000 H
   H247       1.0     0.678523      0.137497      0.175507     Biso  1.000000 H
   H248       1.0     0.862503      0.541027      0.175507     Biso  1.000000 H
   H249       1.0     0.458973      0.321477      0.175507     Biso  1.000000 H
   H250       1.0     0.804163      0.011857      0.157827     Biso  1.000000 H
   H251       1.0     0.207693      0.195837      0.157827     Biso  1.000000 H
   H252       1.0     0.988143      0.792307      0.157827     Biso  1.000000 H
   H253       1.0     0.304870      0.504520      0.560910     Biso  1.000000 H
   H254       1.0     0.495480      0.800350      0.560910     Biso  1.000000 H
   H255       1.0     0.199650      0.695130      0.560910     Biso  1.000000 H
   H256       1.0     0.504520      0.304870      0.439090     Biso  1.000000 H
   H257       1.0     0.800350      0.495480      0.439090     Biso  1.000000 H
   H258       1.0     0.695130      0.199650      0.439090     Biso  1.000000 H
   H259       1.0     0.971537      0.837853      0.894243     Biso  1.000000 H
   H260       1.0     0.162147      0.133683      0.894243     Biso  1.000000 H
   H261       1.0     0.866317      0.028463      0.894243     Biso  1.000000 H
   H262       1.0     0.171187      0.638203      0.772423     Biso  1.000000 H
   H263       1.0     0.467017      0.828813      0.772423     Biso  1.000000 H
   H264       1.0     0.361797      0.532983      0.772423     Biso  1.000000 H
   H265       1.0     0.638203      0.171187      0.227577     Biso  1.000000 H
   H266       1.0     0.828813      0.467017      0.227577     Biso  1.000000 H
   H267       1.0     0.532983      0.361797      0.227577     Biso  1.000000 H
   H268       1.0     0.837853      0.971537      0.105757     Biso  1.000000 H
   H269       1.0     0.133683      0.162147      0.105757     Biso  1.000000 H
   H270       1.0     0.028463      0.866317      0.105757     Biso  1.000000 H
   H271       1.0     0.351370      0.506640      0.482800     Biso  1.000000 H
   H272       1.0     0.493360      0.844730      0.482800     Biso  1.000000 H
   H273       1.0     0.155270      0.648630      0.482800     Biso  1.000000 H
   H274       1.0     0.506640      0.351370      0.517200     Biso  1.000000 H
   H275       1.0     0.844730      0.493360      0.517200     Biso  1.000000 H
   H276       1.0     0.648630      0.155270      0.517200     Biso  1.000000 H
   H277       1.0     0.018037      0.839973      0.816133     Biso  1.000000 H
   H278       1.0     0.160027      0.178063      0.816133     Biso  1.000000 H
   H279       1.0     0.821937      0.981963      0.816133     Biso  1.000000 H
   H280       1.0     0.173307      0.684703      0.850533     Biso  1.000000 H
   H281       1.0     0.511397      0.826693      0.850533     Biso  1.000000 H
   H282       1.0     0.315297      0.488603      0.850533     Biso  1.000000 H
   H283       1.0     0.684703      0.173307      0.149467     Biso  1.000000 H
   H284       1.0     0.826693      0.511397      0.149467     Biso  1.000000 H
   H285       1.0     0.488603      0.315297      0.149467     Biso  1.000000 H
   H286       1.0     0.839973      0.018037      0.183867     Biso  1.000000 H
   H287       1.0     0.178063      0.160027      0.183867     Biso  1.000000 H
   H288       1.0     0.981963      0.821937      0.183867     Biso  1.000000 H
   H289       1.0     0.330070      0.618240      0.452640     Biso  1.000000 H
   H290       1.0     0.381760      0.711830      0.452640     Biso  1.000000 H
   H291       1.0     0.288170      0.669930      0.452640     Biso  1.000000 H
   H292       1.0     0.618240      0.330070      0.547360     Biso  1.000000 H
   H293       1.0     0.711830      0.381760      0.547360     Biso  1.000000 H
   H294       1.0     0.669930      0.288170      0.547360     Biso  1.000000 H
   H295       1.0     0.996737      0.951573      0.785973     Biso  1.000000 H
   H296       1.0     0.048427      0.045163      0.785973     Biso  1.000000 H
   H297       1.0     0.954837      0.003263      0.785973     Biso  1.000000 H
   H298       1.0     0.284907      0.663403      0.880693     Biso  1.000000 H
   H299       1.0     0.378497      0.715093      0.880693     Biso  1.000000 H
   H300       1.0     0.336597      0.621503      0.880693     Biso  1.000000 H
   H301       1.0     0.663403      0.284907      0.119307     Biso  1.000000 H
   H302       1.0     0.715093      0.378497      0.119307     Biso  1.000000 H
   H303       1.0     0.621503      0.336597      0.119307     Biso  1.000000 H
   H304       1.0     0.951573      0.996737      0.214027     Biso  1.000000 H
   H305       1.0     0.045163      0.048427      0.214027     Biso  1.000000 H
   H306       1.0     0.003263      0.954837      0.214027     Biso  1.000000 H
   H307       1.0     0.292230      0.563760      0.458450     Biso  1.000000 H
   H308       1.0     0.436240      0.728470      0.458450     Biso  1.000000 H
   H309       1.0     0.271530      0.707770      0.458450     Biso  1.000000 H
   H310       1.0     0.563760      0.292230      0.541550     Biso  1.000000 H
   H311       1.0     0.728470      0.436240      0.541550     Biso  1.000000 H
   H312       1.0     0.707770      0.271530      0.541550     Biso  1.000000 H
   H313       1.0     0.958897      0.897093      0.791783     Biso  1.000000 H
   H314       1.0     0.102907      0.061803      0.791783     Biso  1.000000 H
   H315       1.0     0.938197      0.041103      0.791783     Biso  1.000000 H
   H316       1.0     0.230427      0.625563      0.874883     Biso  1.000000 H
   H317       1.0     0.395137      0.769573      0.874883     Biso  1.000000 H
   H318       1.0     0.374437      0.604863      0.874883     Biso  1.000000 H
   H319       1.0     0.625563      0.230427      0.125117     Biso  1.000000 H
   H320       1.0     0.769573      0.395137      0.125117     Biso  1.000000 H
   H321       1.0     0.604863      0.374437      0.125117     Biso  1.000000 H
   H322       1.0     0.897093      0.958897      0.208217     Biso  1.000000 H
   H323       1.0     0.061803      0.102907      0.208217     Biso  1.000000 H
   H324       1.0     0.041103      0.938197      0.208217     Biso  1.000000 H
   H325       1.0     0.295810      0.529830      0.488660     Biso  1.000000 H
   H326       1.0     0.470170      0.765980      0.488660     Biso  1.000000 H
   H327       1.0     0.234020      0.704190      0.488660     Biso  1.000000 H
   H328       1.0     0.529830      0.295810      0.511340     Biso  1.000000 H
   H329       1.0     0.765980      0.470170      0.511340     Biso  1.000000 H
   H330       1.0     0.704190      0.234020      0.511340     Biso  1.000000 H
   H331       1.0     0.962477      0.863163      0.821993     Biso  1.000000 H
   H332       1.0     0.136837      0.099313      0.821993     Biso  1.000000 H
   H333       1.0     0.900687      0.037523      0.821993     Biso  1.000000 H
   H334       1.0     0.196497      0.629143      0.844673     Biso  1.000000 H
   H335       1.0     0.432647      0.803503      0.844673     Biso  1.000000 H
   H336       1.0     0.370857      0.567353      0.844673     Biso  1.000000 H
   H337       1.0     0.629143      0.196497      0.155327     Biso  1.000000 H
   H338       1.0     0.803503      0.432647      0.155327     Biso  1.000000 H
   H339       1.0     0.567353      0.370857      0.155327     Biso  1.000000 H
   H340       1.0     0.863163      0.962477      0.178007     Biso  1.000000 H
   H341       1.0     0.099313      0.136837      0.178007     Biso  1.000000 H
   H342       1.0     0.037523      0.900687      0.178007     Biso  1.000000 H
   H343       1.0     0.364600      0.573730      0.412670     Biso  1.000000 H
   H344       1.0     0.426270      0.790870      0.412670     Biso  1.000000 H
   H345       1.0     0.209130      0.635400      0.412670     Biso  1.000000 H
   H346       1.0     0.573730      0.364600      0.587330     Biso  1.000000 H
   H347       1.0     0.790870      0.426270      0.587330     Biso  1.000000 H
   H348       1.0     0.635400      0.209130      0.587330     Biso  1.000000 H
   H349       1.0     0.031267      0.907063      0.746003     Biso  1.000000 H
   H350       1.0     0.092937      0.124203      0.746003     Biso  1.000000 H
   H351       1.0     0.875797      0.968733      0.746003     Biso  1.000000 H
   H352       1.0     0.240397      0.697933      0.920663     Biso  1.000000 H
   H353       1.0     0.457537      0.759603      0.920663     Biso  1.000000 H
   H354       1.0     0.302067      0.542463      0.920663     Biso  1.000000 H
   H355       1.0     0.697933      0.240397      0.079337     Biso  1.000000 H
   H356       1.0     0.759603      0.457537      0.079337     Biso  1.000000 H
   H357       1.0     0.542463      0.302067      0.079337     Biso  1.000000 H
   H358       1.0     0.907063      0.031267      0.253997     Biso  1.000000 H
   H359       1.0     0.124203      0.092937      0.253997     Biso  1.000000 H
   H360       1.0     0.968733      0.875797      0.253997     Biso  1.000000 H
   H361       1.0     0.352800      0.371200      0.624390     Biso  1.000000 H
   H362       1.0     0.628800      0.981600      0.624390     Biso  1.000000 H
   H363       1.0     0.018400      0.647200      0.624390     Biso  1.000000 H
   H364       1.0     0.371200      0.352800      0.375610     Biso  1.000000 H
   H365       1.0     0.981600      0.628800      0.375610     Biso  1.000000 H
   H366       1.0     0.647200      0.018400      0.375610     Biso  1.000000 H
   H367       1.0     0.019467      0.704533      0.957723     Biso  1.000000 H
   H368       1.0     0.295467      0.314933      0.957723     Biso  1.000000 H
   H369       1.0     0.685067      0.980533      0.957723     Biso  1.000000 H
   H370       1.0     0.037867      0.686133      0.708943     Biso  1.000000 H
   H371       1.0     0.648267      0.962133      0.708943     Biso  1.000000 H
   H372       1.0     0.313867      0.351733      0.708943     Biso  1.000000 H
   H373       1.0     0.686133      0.037867      0.291057     Biso  1.000000 H
   H374       1.0     0.962133      0.648267      0.291057     Biso  1.000000 H
   H375       1.0     0.351733      0.313867      0.291057     Biso  1.000000 H
   H376       1.0     0.704533      0.019467      0.042277     Biso  1.000000 H
   H377       1.0     0.314933      0.295467      0.042277     Biso  1.000000 H
   H378       1.0     0.980533      0.685067      0.042277     Biso  1.000000 H
   H379       1.0     0.391350      0.360290      0.623840     Biso  1.000000 H
   H380       1.0     0.639710      0.031060      0.623840     Biso  1.000000 H
   H381       1.0     0.968940      0.608650      0.623840     Biso  1.000000 H
   H382       1.0     0.360290      0.391350      0.376160     Biso  1.000000 H
   H383       1.0     0.031060      0.639710      0.376160     Biso  1.000000 H
   H384       1.0     0.608650      0.968940      0.376160     Biso  1.000000 H
   H385       1.0     0.058017      0.693623      0.957173     Biso  1.000000 H
   H386       1.0     0.306377      0.364393      0.957173     Biso  1.000000 H
   H387       1.0     0.635607      0.941983      0.957173     Biso  1.000000 H
   H388       1.0     0.026957      0.724683      0.709493     Biso  1.000000 H
   H389       1.0     0.697727      0.973043      0.709493     Biso  1.000000 H
   H390       1.0     0.275317      0.302273      0.709493     Biso  1.000000 H
   H391       1.0     0.724683      0.026957      0.290507     Biso  1.000000 H
   H392       1.0     0.973043      0.697727      0.290507     Biso  1.000000 H
   H393       1.0     0.302273      0.275317      0.290507     Biso  1.000000 H
   H394       1.0     0.693623      0.058017      0.042827     Biso  1.000000 H
   H395       1.0     0.364393      0.306377      0.042827     Biso  1.000000 H
   H396       1.0     0.941983      0.635607      0.042827     Biso  1.000000 H
   H397       1.0     0.407530      0.382360      0.708820     Biso  1.000000 H
   H398       1.0     0.617640      0.025170      0.708820     Biso  1.000000 H
   H399       1.0     0.974830      0.592470      0.708820     Biso  1.000000 H
   H400       1.0     0.382360      0.407530      0.291180     Biso  1.000000 H
   H401       1.0     0.025170      0.617640      0.291180     Biso  1.000000 H
   H402       1.0     0.592470      0.974830      0.291180     Biso  1.000000 H
   H403       1.0     0.074197      0.715693      0.042153     Biso  1.000000 H
   H404       1.0     0.284307      0.358503      0.042153     Biso  1.000000 H
   H405       1.0     0.641497      0.925803      0.042153     Biso  1.000000 H
   H406       1.0     0.049027      0.740863      0.624513     Biso  1.000000 H
   H407       1.0     0.691837      0.950973      0.624513     Biso  1.000000 H
   H408       1.0     0.259137      0.308163      0.624513     Biso  1.000000 H
   H409       1.0     0.740863      0.049027      0.375487     Biso  1.000000 H
   H410       1.0     0.950973      0.691837      0.375487     Biso  1.000000 H
   H411       1.0     0.308163      0.259137      0.375487     Biso  1.000000 H
   H412       1.0     0.715693      0.074197      0.957847     Biso  1.000000 H
   H413       1.0     0.358503      0.284307      0.957847     Biso  1.000000 H
   H414       1.0     0.925803      0.641497      0.957847     Biso  1.000000 H
   H415       1.0     0.369300      0.393230      0.709700     Biso  1.000000 H
   H416       1.0     0.606770      0.976070      0.709700     Biso  1.000000 H
   H417       1.0     0.023930      0.630700      0.709700     Biso  1.000000 H
   H418       1.0     0.393230      0.369300      0.290300     Biso  1.000000 H
   H419       1.0     0.976070      0.606770      0.290300     Biso  1.000000 H
   H420       1.0     0.630700      0.023930      0.290300     Biso  1.000000 H
   H421       1.0     0.035967      0.726563      0.043033     Biso  1.000000 H
   H422       1.0     0.273437      0.309403      0.043033     Biso  1.000000 H
   H423       1.0     0.690597      0.964033      0.043033     Biso  1.000000 H
   H424       1.0     0.059897      0.702633      0.623633     Biso  1.000000 H
   H425       1.0     0.642737      0.940103      0.623633     Biso  1.000000 H
   H426       1.0     0.297367      0.357263      0.623633     Biso  1.000000 H
   H427       1.0     0.702633      0.059897      0.376367     Biso  1.000000 H
   H428       1.0     0.940103      0.642737      0.376367     Biso  1.000000 H
   H429       1.0     0.357263      0.297367      0.376367     Biso  1.000000 H
   H430       1.0     0.726563      0.035967      0.956967     Biso  1.000000 H
   H431       1.0     0.309403      0.273437      0.956967     Biso  1.000000 H
   H432       1.0     0.964033      0.690597      0.956967     Biso  1.000000 H
   H433       1.0     0.333333      0.666667      0.981730     Biso  1.000000 H
   H434       1.0     0.666667      0.333333      0.018270     Biso  1.000000 H
   H435       1.0     0.000000      0.000000      0.315063     Biso  1.000000 H
   H436       1.0     0.333333      0.666667      0.351603     Biso  1.000000 H
   H437       1.0     0.666667      0.333333      0.648397     Biso  1.000000 H
   H438       1.0     0.000000      0.000000      0.684937     Biso  1.000000 H
   H439       1.0     0.333333      0.666667      0.882050     Biso  1.000000 H
   H440       1.0     0.666667      0.333333      0.117950     Biso  1.000000 H
   H441       1.0     0.000000      0.000000      0.215383     Biso  1.000000 H
   H442       1.0     0.333333      0.666667      0.451283     Biso  1.000000 H
   H443       1.0     0.666667      0.333333      0.548717     Biso  1.000000 H
   H444       1.0     0.000000      0.000000      0.784617     Biso  1.000000 H
