
#======================================================================
# CRYSTAL DATA
#----------------------------------------------------------------------
data_VESTA_phase_1

_chemical_name_common                  'MOF-177'
_cell_length_a                         37.071999
_cell_length_b                         37.071999
_cell_length_c                         30.033300
_cell_angle_alpha                      90.000000
_cell_angle_beta                       90.000000
_cell_angle_gamma                      120.000000
_cell_volume                           35745.855195
_space_group_name_H-M_alt              'P 1'
_space_group_IT_number                 1

loop_
_space_group_symop_operation_xyz
   'x, y, z'

loop_
   _atom_site_label
   _atom_site_occupancy
   _atom_site_fract_x
   _atom_site_fract_y
   _atom_site_fract_z
   _atom_site_adp_type
   _atom_site_U_iso_or_equiv
   _atom_site_type_symbol
   Zn1        1.0     0.156000     0.296000     0.198300    Uiso  ? Zn
   Zn1        1.0     0.704000     0.860000     0.198300    Uiso  ? Zn
   Zn1        1.0     0.140000     0.844000     0.198300    Uiso  ? Zn
   Zn1        1.0     0.224600     0.366300     0.260200    Uiso  ? Zn
   Zn1        1.0     0.633700     0.858300     0.260200    Uiso  ? Zn
   Zn1        1.0     0.141700     0.775400     0.260200    Uiso  ? Zn
   O2         1.0     0.371600     0.238800     0.821400    Uiso  ? O
   O2         1.0     0.761200     0.132800     0.821400    Uiso  ? O
   O2         1.0     0.867200     0.628400     0.821400    Uiso  ? O
   O2         1.0     0.318500     0.179600     0.851100    Uiso  ? O
   O2         1.0     0.820400     0.138900     0.851100    Uiso  ? O
   O2         1.0     0.861100     0.681500     0.851100    Uiso  ? O
   O2         1.0     0.585400     0.332300     0.227000    Uiso  ? O
   O2         1.0     0.667700     0.253100     0.227000    Uiso  ? O
   O2         1.0     0.746900     0.414600     0.227000    Uiso  ? O
   O2         1.0     0.615100     0.326700     0.165300    Uiso  ? O
   O2         1.0     0.673300     0.288400     0.165300    Uiso  ? O
   O2         1.0     0.711600     0.384900     0.165300    Uiso  ? O
   O2         1.0     0.260300     0.352700     0.224300    Uiso  ? O
   O2         1.0     0.647300     0.907600     0.224300    Uiso  ? O
   O2         1.0     0.092400     0.739700     0.224300    Uiso  ? O
   O2         1.0     0.211400     0.304700     0.181500    Uiso  ? O
   O2         1.0     0.695300     0.906700     0.181500    Uiso  ? O
   O2         1.0     0.093300     0.788600     0.181500    Uiso  ? O
   O2         1.0     0.118600     0.239600     0.212100    Uiso  ? O
   O2         1.0     0.760400     0.879000     0.212100    Uiso  ? O
   O2         1.0     0.121000     0.881400     0.212100    Uiso  ? O
   O2         1.0     0.242900     0.424500     0.246400    Uiso  ? O
   O2         1.0     0.575500     0.818400     0.246400    Uiso  ? O
   O2         1.0     0.181600     0.757100     0.246400    Uiso  ? O
   C6         1.0     0.388400     0.280000     0.033500    Uiso  ? C
   C6         1.0     0.720000     0.108400     0.033500    Uiso  ? C
   C6         1.0     0.891600     0.611600     0.033500    Uiso  ? C
   C7         1.0     0.424900     0.288100     0.053600    Uiso  ? C
   C7         1.0     0.711900     0.136800     0.053600    Uiso  ? C
   C7         1.0     0.863200     0.575100     0.053600    Uiso  ? C
   C6         1.0     0.434900     0.302000     0.098000    Uiso  ? C
   C6         1.0     0.698000     0.132900     0.098000    Uiso  ? C
   C6         1.0     0.867100     0.565100     0.098000    Uiso  ? C
   C7         1.0     0.406800     0.309200     0.120600    Uiso  ? C
   C7         1.0     0.690800     0.097600     0.120600    Uiso  ? C
   C7         1.0     0.902400     0.593200     0.120600    Uiso  ? C
   C6         1.0     0.369900     0.301200     0.101800    Uiso  ? C
   C6         1.0     0.698800     0.068700     0.101800    Uiso  ? C
   C6         1.0     0.931300     0.630100     0.101800    Uiso  ? C
   C7         1.0     0.360700     0.285700     0.058900    Uiso  ? C
   C7         1.0     0.714300     0.075000     0.058900    Uiso  ? C
   C7         1.0     0.925000     0.639300     0.058900    Uiso  ? C
   C5         1.0     0.473400     0.308200     0.118500    Uiso  ? C
   C5         1.0     0.691800     0.165200     0.118500    Uiso  ? C
   C5         1.0     0.834800     0.526600     0.118500    Uiso  ? C
   C4         1.0     0.491900     0.287400     0.107000    Uiso  ? C
   C4         1.0     0.712600     0.204500     0.107000    Uiso  ? C
   C4         1.0     0.795500     0.508100     0.107000    Uiso  ? C
   C3         1.0     0.527600     0.295200     0.128000    Uiso  ? C
   C3         1.0     0.704800     0.232400     0.128000    Uiso  ? C
   C3         1.0     0.767600     0.472400     0.128000    Uiso  ? C
   C2         1.0     0.544200     0.319700     0.160800    Uiso  ? C
   C2         1.0     0.680300     0.224500     0.160800    Uiso  ? C
   C2         1.0     0.775500     0.455800     0.160800    Uiso  ? C
   C3         1.0     0.527200     0.342200     0.170300    Uiso  ? C
   C3         1.0     0.657800     0.185000     0.170300    Uiso  ? C
   C3         1.0     0.815000     0.472800     0.170300    Uiso  ? C
   C4         1.0     0.491700     0.335200     0.149300    Uiso  ? C
   C4         1.0     0.664800     0.156500     0.149300    Uiso  ? C
   C4         1.0     0.843500     0.508300     0.149300    Uiso  ? C
   C5         1.0     0.340000     0.309200     0.124200    Uiso  ? C
   C5         1.0     0.690800     0.030800     0.124200    Uiso  ? C
   C5         1.0     0.969200     0.660000     0.124200    Uiso  ? C
   C4         1.0     0.347700     0.335200     0.156500    Uiso  ? C
   C4         1.0     0.664800     0.012500     0.156500    Uiso  ? C
   C4         1.0     0.987500     0.652300     0.156500    Uiso  ? C
   C3         1.0     0.318300     0.341600     0.179900    Uiso  ? C
   C3         1.0     0.658400     0.976700     0.179900    Uiso  ? C
   C3         1.0     0.023300     0.681700     0.179900    Uiso  ? C
   C2         1.0     0.282200     0.322500     0.170500    Uiso  ? C
   C2         1.0     0.677500     0.959700     0.170500    Uiso  ? C
   C2         1.0     0.040300     0.717800     0.170500    Uiso  ? C
   C3         1.0     0.271300     0.298500     0.136500    Uiso  ? C
   C3         1.0     0.701500     0.972800     0.136500    Uiso  ? C
   C3         1.0     0.027200     0.728700     0.136500    Uiso  ? C
   C4         1.0     0.300100     0.292100     0.113700    Uiso  ? C
   C4         1.0     0.707900     0.008000     0.113700    Uiso  ? C
   C4         1.0     0.992000     0.699900     0.113700    Uiso  ? C
   C5         1.0     0.380600     0.265900     0.985800    Uiso  ? C
   C5         1.0     0.734100     0.114700     0.985800    Uiso  ? C
   C5         1.0     0.885300     0.619400     0.985800    Uiso  ? C
   C4         1.0     0.340400     0.235200     0.974500    Uiso  ? C
   C4         1.0     0.764800     0.105200     0.974500    Uiso  ? C
   C4         1.0     0.894800     0.659600     0.974500    Uiso  ? C
   C3         1.0     0.398500     0.263800     0.911200    Uiso  ? C
   C3         1.0     0.736200     0.134700     0.911200    Uiso  ? C
   C3         1.0     0.865300     0.601500     0.911200    Uiso  ? C
   C2         1.0     0.359900     0.232100     0.900400    Uiso  ? C
   C2         1.0     0.767900     0.127800     0.900400    Uiso  ? C
   C2         1.0     0.872200     0.640100     0.900400    Uiso  ? C
   C4         1.0     0.407300     0.275400     0.953100    Uiso  ? C
   C4         1.0     0.724600     0.131900     0.953100    Uiso  ? C
   C4         1.0     0.868100     0.592700     0.953100    Uiso  ? C
   C1         1.0     0.350400     0.216800     0.854000    Uiso  ? C
   C1         1.0     0.783200     0.133600     0.854000    Uiso  ? C
   C1         1.0     0.866400     0.649600     0.854000    Uiso  ? C
   C1         1.0     0.584400     0.324700     0.182600    Uiso  ? C
   C1         1.0     0.675300     0.259700     0.182600    Uiso  ? C
   C1         1.0     0.740300     0.415600     0.182600    Uiso  ? C
   C1         1.0     0.253100     0.328500     0.192800    Uiso  ? C
   C1         1.0     0.671500     0.924600     0.192800    Uiso  ? C
   C1         1.0     0.075400     0.746900     0.192800    Uiso  ? C
   C4         1.0     0.041000     0.112800     0.285800    Uiso  ? C
   C4         1.0     0.887200     0.928200     0.285800    Uiso  ? C
   C4         1.0     0.071800     0.959000     0.285800    Uiso  ? C
   C3         1.0     0.063400     0.157100     0.285800    Uiso  ? C
   C3         1.0     0.842900     0.906300     0.285800    Uiso  ? C
   C3         1.0     0.093700     0.936600     0.285800    Uiso  ? C
   C4         1.0     0.306600     0.554000     0.235400    Uiso  ? C
   C4         1.0     0.446000     0.752600     0.235400    Uiso  ? C
   C4         1.0     0.247400     0.693400     0.235400    Uiso  ? C
   C3         1.0     0.285000     0.512400     0.235600    Uiso  ? C
   C3         1.0     0.487600     0.772600     0.235600    Uiso  ? C
   C3         1.0     0.227400     0.715000     0.235600    Uiso  ? C
   C3         1.0     0.332400     0.220400     0.929100    Uiso  ? C
   C3         1.0     0.779600     0.112000     0.929100    Uiso  ? C
   C3         1.0     0.888000     0.667600     0.929100    Uiso  ? C
   Zn1        1.0     0.621900     0.340700     0.277900    Uiso  ? Zn
   Zn1        1.0     0.659300     0.281200     0.277900    Uiso  ? Zn
   Zn1        1.0     0.718800     0.378100     0.277900    Uiso  ? Zn
   Zn1        1.0     0.140000     0.296000     0.301700    Uiso  ? Zn
   Zn1        1.0     0.704000     0.844000     0.301700    Uiso  ? Zn
   Zn1        1.0     0.156000     0.860000     0.301700    Uiso  ? Zn
   Zn1        1.0     0.141700     0.366300     0.239800    Uiso  ? Zn
   Zn1        1.0     0.633700     0.775400     0.239800    Uiso  ? Zn
   Zn1        1.0     0.224600     0.858300     0.239800    Uiso  ? Zn
   O2         1.0     0.371600     0.132800     0.678600    Uiso  ? O
   O2         1.0     0.867200     0.238800     0.678600    Uiso  ? O
   O2         1.0     0.761200     0.628400     0.678600    Uiso  ? O
   O2         1.0     0.318500     0.138900     0.648900    Uiso  ? O
   O2         1.0     0.861100     0.179600     0.648900    Uiso  ? O
   O2         1.0     0.820400     0.681500     0.648900    Uiso  ? O
   O2         1.0     0.604700     0.238500     0.300700    Uiso  ? O
   O2         1.0     0.761500     0.366200     0.300700    Uiso  ? O
   O2         1.0     0.633800     0.395300     0.300700    Uiso  ? O
   O2         1.0     0.582200     0.294000     0.310200    Uiso  ? O
   O2         1.0     0.706000     0.288200     0.310200    Uiso  ? O
   O2         1.0     0.711800     0.417800     0.310200    Uiso  ? O
   O2         1.0     0.092400     0.352700     0.275700    Uiso  ? O
   O2         1.0     0.647300     0.739700     0.275700    Uiso  ? O
   O2         1.0     0.260300     0.907600     0.275700    Uiso  ? O
   O2         1.0     0.093300     0.304700     0.318500    Uiso  ? O
   O2         1.0     0.695300     0.788600     0.318500    Uiso  ? O
   O2         1.0     0.211400     0.906700     0.318500    Uiso  ? O
   O2         1.0     0.121000     0.239600     0.287900    Uiso  ? O
   O2         1.0     0.760400     0.881400     0.287900    Uiso  ? O
   O2         1.0     0.118600     0.879000     0.287900    Uiso  ? O
   O2         1.0     0.181600     0.424500     0.253600    Uiso  ? O
   O2         1.0     0.575500     0.757100     0.253600    Uiso  ? O
   O2         1.0     0.242900     0.818400     0.253600    Uiso  ? O
   C6         1.0     0.388400     0.108400     0.466500    Uiso  ? C
   C6         1.0     0.891600     0.280000     0.466500    Uiso  ? C
   C6         1.0     0.720000     0.611600     0.466500    Uiso  ? C
   C7         1.0     0.424900     0.136800     0.446400    Uiso  ? C
   C7         1.0     0.863200     0.288100     0.446400    Uiso  ? C
   C7         1.0     0.711900     0.575100     0.446400    Uiso  ? C
   C6         1.0     0.434900     0.132900     0.402000    Uiso  ? C
   C6         1.0     0.867100     0.302000     0.402000    Uiso  ? C
   C6         1.0     0.698000     0.565100     0.402000    Uiso  ? C
   C7         1.0     0.406800     0.097600     0.379400    Uiso  ? C
   C7         1.0     0.902400     0.309200     0.379400    Uiso  ? C
   C7         1.0     0.690800     0.593200     0.379400    Uiso  ? C
   C6         1.0     0.369900     0.068700     0.398200    Uiso  ? C
   C6         1.0     0.931300     0.301200     0.398200    Uiso  ? C
   C6         1.0     0.698800     0.630100     0.398200    Uiso  ? C
   C7         1.0     0.360700     0.075000     0.441100    Uiso  ? C
   C7         1.0     0.925000     0.285700     0.441100    Uiso  ? C
   C7         1.0     0.714300     0.639300     0.441100    Uiso  ? C
   C5         1.0     0.473400     0.165200     0.381500    Uiso  ? C
   C5         1.0     0.834800     0.308200     0.381500    Uiso  ? C
   C5         1.0     0.691800     0.526600     0.381500    Uiso  ? C
   C4         1.0     0.491900     0.204500     0.393000    Uiso  ? C
   C4         1.0     0.795500     0.287400     0.393000    Uiso  ? C
   C4         1.0     0.712600     0.508100     0.393000    Uiso  ? C
   C3         1.0     0.527600     0.232400     0.372000    Uiso  ? C
   C3         1.0     0.767600     0.295200     0.372000    Uiso  ? C
   C3         1.0     0.704800     0.472400     0.372000    Uiso  ? C
   C2         1.0     0.544200     0.224500     0.339200    Uiso  ? C
   C2         1.0     0.775500     0.319700     0.339200    Uiso  ? C
   C2         1.0     0.680300     0.455800     0.339200    Uiso  ? C
   C3         1.0     0.527200     0.185000     0.329700    Uiso  ? C
   C3         1.0     0.815000     0.342200     0.329700    Uiso  ? C
   C3         1.0     0.657800     0.472800     0.329700    Uiso  ? C
   C4         1.0     0.491700     0.156500     0.350700    Uiso  ? C
   C4         1.0     0.843500     0.335200     0.350700    Uiso  ? C
   C4         1.0     0.664800     0.508300     0.350700    Uiso  ? C
   C5         1.0     0.340000     0.030800     0.375800    Uiso  ? C
   C5         1.0     0.969200     0.309200     0.375800    Uiso  ? C
   C5         1.0     0.690800     0.660000     0.375800    Uiso  ? C
   C4         1.0     0.347700     0.012500     0.343500    Uiso  ? C
   C4         1.0     0.987500     0.335200     0.343500    Uiso  ? C
   C4         1.0     0.664800     0.652300     0.343500    Uiso  ? C
   C3         1.0     0.023300     0.341600     0.320100    Uiso  ? C
   C3         1.0     0.658400     0.681700     0.320100    Uiso  ? C
   C3         1.0     0.318300     0.976700     0.320100    Uiso  ? C
   C2         1.0     0.040300     0.322500     0.329500    Uiso  ? C
   C2         1.0     0.677500     0.717800     0.329500    Uiso  ? C
   C2         1.0     0.282200     0.959700     0.329500    Uiso  ? C
   C3         1.0     0.027200     0.298500     0.363500    Uiso  ? C
   C3         1.0     0.701500     0.728700     0.363500    Uiso  ? C
   C3         1.0     0.271300     0.972800     0.363500    Uiso  ? C
   C4         1.0     0.300100     0.008000     0.386300    Uiso  ? C
   C4         1.0     0.992000     0.292100     0.386300    Uiso  ? C
   C4         1.0     0.707900     0.699900     0.386300    Uiso  ? C
   C5         1.0     0.380600     0.114700     0.514200    Uiso  ? C
   C5         1.0     0.885300     0.265900     0.514200    Uiso  ? C
   C5         1.0     0.734100     0.619400     0.514200    Uiso  ? C
   C4         1.0     0.340400     0.105200     0.525500    Uiso  ? C
   C4         1.0     0.894800     0.235200     0.525500    Uiso  ? C
   C4         1.0     0.764800     0.659600     0.525500    Uiso  ? C
   C3         1.0     0.398500     0.134700     0.588800    Uiso  ? C
   C3         1.0     0.865300     0.263800     0.588800    Uiso  ? C
   C3         1.0     0.736200     0.601500     0.588800    Uiso  ? C
   C2         1.0     0.359900     0.127800     0.599600    Uiso  ? C
   C2         1.0     0.872200     0.232100     0.599600    Uiso  ? C
   C2         1.0     0.767900     0.640100     0.599600    Uiso  ? C
   C4         1.0     0.407300     0.131900     0.546900    Uiso  ? C
   C4         1.0     0.868100     0.275400     0.546900    Uiso  ? C
   C4         1.0     0.724600     0.592700     0.546900    Uiso  ? C
   C1         1.0     0.350400     0.133600     0.646000    Uiso  ? C
   C1         1.0     0.866400     0.216800     0.646000    Uiso  ? C
   C1         1.0     0.783200     0.649600     0.646000    Uiso  ? C
   C1         1.0     0.584400     0.259700     0.317400    Uiso  ? C
   C1         1.0     0.740300     0.324700     0.317400    Uiso  ? C
   C1         1.0     0.675300     0.415600     0.317400    Uiso  ? C
   C1         1.0     0.075400     0.328500     0.307200    Uiso  ? C
   C1         1.0     0.671500     0.746900     0.307200    Uiso  ? C
   C1         1.0     0.253100     0.924600     0.307200    Uiso  ? C
   C4         1.0     0.071800     0.112800     0.214200    Uiso  ? C
   C4         1.0     0.887200     0.959000     0.214200    Uiso  ? C
   C4         1.0     0.041000     0.928200     0.214200    Uiso  ? C
   C3         1.0     0.093700     0.157100     0.214200    Uiso  ? C
   C3         1.0     0.842900     0.936600     0.214200    Uiso  ? C
   C3         1.0     0.063400     0.906300     0.214200    Uiso  ? C
   C4         1.0     0.247400     0.554000     0.264600    Uiso  ? C
   C4         1.0     0.446000     0.693400     0.264600    Uiso  ? C
   C4         1.0     0.306600     0.752600     0.264600    Uiso  ? C
   C3         1.0     0.227400     0.512400     0.264400    Uiso  ? C
   C3         1.0     0.487600     0.715000     0.264400    Uiso  ? C
   C3         1.0     0.285000     0.772600     0.264400    Uiso  ? C
   C3         1.0     0.332400     0.112000     0.570900    Uiso  ? C
   C3         1.0     0.888000     0.220400     0.570900    Uiso  ? C
   C3         1.0     0.779600     0.667600     0.570900    Uiso  ? C
   Zn1        1.0     0.340700     0.621900     0.777900    Uiso  ? Zn
   Zn1        1.0     0.378100     0.718800     0.777900    Uiso  ? Zn
   Zn1        1.0     0.281200     0.659300     0.777900    Uiso  ? Zn
   Zn1        1.0     0.296000     0.140000     0.801700    Uiso  ? Zn
   Zn1        1.0     0.860000     0.156000     0.801700    Uiso  ? Zn
   Zn1        1.0     0.844000     0.704000     0.801700    Uiso  ? Zn
   Zn1        1.0     0.366300     0.141700     0.739800    Uiso  ? Zn
   Zn1        1.0     0.858300     0.224600     0.739800    Uiso  ? Zn
   Zn1        1.0     0.775400     0.633700     0.739800    Uiso  ? Zn
   O2         1.0     0.132800     0.371600     0.178600    Uiso  ? O
   O2         1.0     0.628400     0.761200     0.178600    Uiso  ? O
   O2         1.0     0.238800     0.867200     0.178600    Uiso  ? O
   O2         1.0     0.138900     0.318500     0.148900    Uiso  ? O
   O2         1.0     0.681500     0.820400     0.148900    Uiso  ? O
   O2         1.0     0.179600     0.861100     0.148900    Uiso  ? O
   O2         1.0     0.238500     0.604700     0.800700    Uiso  ? O
   O2         1.0     0.395300     0.633800     0.800700    Uiso  ? O
   O2         1.0     0.366200     0.761500     0.800700    Uiso  ? O
   O2         1.0     0.294000     0.582200     0.810200    Uiso  ? O
   O2         1.0     0.417800     0.711800     0.810200    Uiso  ? O
   O2         1.0     0.288200     0.706000     0.810200    Uiso  ? O
   O2         1.0     0.352700     0.092400     0.775700    Uiso  ? O
   O2         1.0     0.907600     0.260300     0.775700    Uiso  ? O
   O2         1.0     0.739700     0.647300     0.775700    Uiso  ? O
   O2         1.0     0.304700     0.093300     0.818500    Uiso  ? O
   O2         1.0     0.906700     0.211400     0.818500    Uiso  ? O
   O2         1.0     0.788600     0.695300     0.818500    Uiso  ? O
   O2         1.0     0.239600     0.121000     0.787900    Uiso  ? O
   O2         1.0     0.879000     0.118600     0.787900    Uiso  ? O
   O2         1.0     0.881400     0.760400     0.787900    Uiso  ? O
   O2         1.0     0.424500     0.181600     0.753600    Uiso  ? O
   O2         1.0     0.818400     0.242900     0.753600    Uiso  ? O
   O2         1.0     0.757100     0.575500     0.753600    Uiso  ? O
   C6         1.0     0.108400     0.388400     0.966500    Uiso  ? C
   C6         1.0     0.611600     0.720000     0.966500    Uiso  ? C
   C6         1.0     0.280000     0.891600     0.966500    Uiso  ? C
   C7         1.0     0.136800     0.424900     0.946400    Uiso  ? C
   C7         1.0     0.575100     0.711900     0.946400    Uiso  ? C
   C7         1.0     0.288100     0.863200     0.946400    Uiso  ? C
   C6         1.0     0.132900     0.434900     0.902000    Uiso  ? C
   C6         1.0     0.565100     0.698000     0.902000    Uiso  ? C
   C6         1.0     0.302000     0.867100     0.902000    Uiso  ? C
   C7         1.0     0.097600     0.406800     0.879400    Uiso  ? C
   C7         1.0     0.593200     0.690800     0.879400    Uiso  ? C
   C7         1.0     0.309200     0.902400     0.879400    Uiso  ? C
   C6         1.0     0.068700     0.369900     0.898200    Uiso  ? C
   C6         1.0     0.630100     0.698800     0.898200    Uiso  ? C
   C6         1.0     0.301200     0.931300     0.898200    Uiso  ? C
   C7         1.0     0.075000     0.360700     0.941100    Uiso  ? C
   C7         1.0     0.639300     0.714300     0.941100    Uiso  ? C
   C7         1.0     0.285700     0.925000     0.941100    Uiso  ? C
   C5         1.0     0.165200     0.473400     0.881500    Uiso  ? C
   C5         1.0     0.526600     0.691800     0.881500    Uiso  ? C
   C5         1.0     0.308200     0.834800     0.881500    Uiso  ? C
   C4         1.0     0.204500     0.491900     0.893000    Uiso  ? C
   C4         1.0     0.508100     0.712600     0.893000    Uiso  ? C
   C4         1.0     0.287400     0.795500     0.893000    Uiso  ? C
   C3         1.0     0.232400     0.527600     0.872000    Uiso  ? C
   C3         1.0     0.472400     0.704800     0.872000    Uiso  ? C
   C3         1.0     0.295200     0.767600     0.872000    Uiso  ? C
   C2         1.0     0.224500     0.544200     0.839200    Uiso  ? C
   C2         1.0     0.455800     0.680300     0.839200    Uiso  ? C
   C2         1.0     0.319700     0.775500     0.839200    Uiso  ? C
   C3         1.0     0.185000     0.527200     0.829700    Uiso  ? C
   C3         1.0     0.472800     0.657800     0.829700    Uiso  ? C
   C3         1.0     0.342200     0.815000     0.829700    Uiso  ? C
   C4         1.0     0.156500     0.491700     0.850700    Uiso  ? C
   C4         1.0     0.508300     0.664800     0.850700    Uiso  ? C
   C4         1.0     0.335200     0.843500     0.850700    Uiso  ? C
   C5         1.0     0.030800     0.340000     0.875800    Uiso  ? C
   C5         1.0     0.660000     0.690800     0.875800    Uiso  ? C
   C5         1.0     0.309200     0.969200     0.875800    Uiso  ? C
   C4         1.0     0.012500     0.347700     0.843500    Uiso  ? C
   C4         1.0     0.652300     0.664800     0.843500    Uiso  ? C
   C4         1.0     0.335200     0.987500     0.843500    Uiso  ? C
   C3         1.0     0.341600     0.023300     0.820100    Uiso  ? C
   C3         1.0     0.976700     0.318300     0.820100    Uiso  ? C
   C3         1.0     0.681700     0.658400     0.820100    Uiso  ? C
   C2         1.0     0.322500     0.040300     0.829500    Uiso  ? C
   C2         1.0     0.959700     0.282200     0.829500    Uiso  ? C
   C2         1.0     0.717800     0.677500     0.829500    Uiso  ? C
   C3         1.0     0.298500     0.027200     0.863500    Uiso  ? C
   C3         1.0     0.972800     0.271300     0.863500    Uiso  ? C
   C3         1.0     0.728700     0.701500     0.863500    Uiso  ? C
   C4         1.0     0.008000     0.300100     0.886300    Uiso  ? C
   C4         1.0     0.699900     0.707900     0.886300    Uiso  ? C
   C4         1.0     0.292100     0.992000     0.886300    Uiso  ? C
   C5         1.0     0.114700     0.380600     0.014200    Uiso  ? C
   C5         1.0     0.619400     0.734100     0.014200    Uiso  ? C
   C5         1.0     0.265900     0.885300     0.014200    Uiso  ? C
   C4         1.0     0.105200     0.340400     0.025500    Uiso  ? C
   C4         1.0     0.659600     0.764800     0.025500    Uiso  ? C
   C4         1.0     0.235200     0.894800     0.025500    Uiso  ? C
   C3         1.0     0.134700     0.398500     0.088800    Uiso  ? C
   C3         1.0     0.601500     0.736200     0.088800    Uiso  ? C
   C3         1.0     0.263800     0.865300     0.088800    Uiso  ? C
   C2         1.0     0.127800     0.359900     0.099600    Uiso  ? C
   C2         1.0     0.640100     0.767900     0.099600    Uiso  ? C
   C2         1.0     0.232100     0.872200     0.099600    Uiso  ? C
   C4         1.0     0.131900     0.407300     0.046900    Uiso  ? C
   C4         1.0     0.592700     0.724600     0.046900    Uiso  ? C
   C4         1.0     0.275400     0.868100     0.046900    Uiso  ? C
   C1         1.0     0.133600     0.350400     0.146000    Uiso  ? C
   C1         1.0     0.649600     0.783200     0.146000    Uiso  ? C
   C1         1.0     0.216800     0.866400     0.146000    Uiso  ? C
   C1         1.0     0.259700     0.584400     0.817400    Uiso  ? C
   C1         1.0     0.415600     0.675300     0.817400    Uiso  ? C
   C1         1.0     0.324700     0.740300     0.817400    Uiso  ? C
   C1         1.0     0.328500     0.075400     0.807200    Uiso  ? C
   C1         1.0     0.924600     0.253100     0.807200    Uiso  ? C
   C1         1.0     0.746900     0.671500     0.807200    Uiso  ? C
   C4         1.0     0.112800     0.071800     0.714200    Uiso  ? C
   C4         1.0     0.928200     0.041000     0.714200    Uiso  ? C
   C4         1.0     0.959000     0.887200     0.714200    Uiso  ? C
   C3         1.0     0.157100     0.093700     0.714200    Uiso  ? C
   C3         1.0     0.906300     0.063400     0.714200    Uiso  ? C
   C3         1.0     0.936600     0.842900     0.714200    Uiso  ? C
   C4         1.0     0.554000     0.247400     0.764600    Uiso  ? C
   C4         1.0     0.752600     0.306600     0.764600    Uiso  ? C
   C4         1.0     0.693400     0.446000     0.764600    Uiso  ? C
   C3         1.0     0.512400     0.227400     0.764400    Uiso  ? C
   C3         1.0     0.772600     0.285000     0.764400    Uiso  ? C
   C3         1.0     0.715000     0.487600     0.764400    Uiso  ? C
   C3         1.0     0.112000     0.332400     0.070900    Uiso  ? C
   C3         1.0     0.667600     0.779600     0.070900    Uiso  ? C
   C3         1.0     0.220400     0.888000     0.070900    Uiso  ? C
   Zn1        1.0     0.296000     0.156000     0.698300    Uiso  ? Zn
   Zn1        1.0     0.844000     0.140000     0.698300    Uiso  ? Zn
   Zn1        1.0     0.860000     0.704000     0.698300    Uiso  ? Zn
   Zn1        1.0     0.366300     0.224600     0.760200    Uiso  ? Zn
   Zn1        1.0     0.775400     0.141700     0.760200    Uiso  ? Zn
   Zn1        1.0     0.858300     0.633700     0.760200    Uiso  ? Zn
   O2         1.0     0.238800     0.371600     0.321400    Uiso  ? O
   O2         1.0     0.628400     0.867200     0.321400    Uiso  ? O
   O2         1.0     0.132800     0.761200     0.321400    Uiso  ? O
   O2         1.0     0.179600     0.318500     0.351100    Uiso  ? O
   O2         1.0     0.681500     0.861100     0.351100    Uiso  ? O
   O2         1.0     0.138900     0.820400     0.351100    Uiso  ? O
   O2         1.0     0.332300     0.585400     0.727000    Uiso  ? O
   O2         1.0     0.414600     0.746900     0.727000    Uiso  ? O
   O2         1.0     0.253100     0.667700     0.727000    Uiso  ? O
   O2         1.0     0.326700     0.615100     0.665300    Uiso  ? O
   O2         1.0     0.384900     0.711600     0.665300    Uiso  ? O
   O2         1.0     0.288400     0.673300     0.665300    Uiso  ? O
   O2         1.0     0.352700     0.260300     0.724300    Uiso  ? O
   O2         1.0     0.739700     0.092400     0.724300    Uiso  ? O
   O2         1.0     0.907600     0.647300     0.724300    Uiso  ? O
   O2         1.0     0.304700     0.211400     0.681500    Uiso  ? O
   O2         1.0     0.788600     0.093300     0.681500    Uiso  ? O
   O2         1.0     0.906700     0.695300     0.681500    Uiso  ? O
   O2         1.0     0.239600     0.118600     0.712100    Uiso  ? O
   O2         1.0     0.881400     0.121000     0.712100    Uiso  ? O
   O2         1.0     0.879000     0.760400     0.712100    Uiso  ? O
   O2         1.0     0.424500     0.242900     0.746400    Uiso  ? O
   O2         1.0     0.757100     0.181600     0.746400    Uiso  ? O
   O2         1.0     0.818400     0.575500     0.746400    Uiso  ? O
   C6         1.0     0.280000     0.388400     0.533500    Uiso  ? C
   C6         1.0     0.611600     0.891600     0.533500    Uiso  ? C
   C6         1.0     0.108400     0.720000     0.533500    Uiso  ? C
   C7         1.0     0.288100     0.424900     0.553600    Uiso  ? C
   C7         1.0     0.575100     0.863200     0.553600    Uiso  ? C
   C7         1.0     0.136800     0.711900     0.553600    Uiso  ? C
   C6         1.0     0.302000     0.434900     0.598000    Uiso  ? C
   C6         1.0     0.565100     0.867100     0.598000    Uiso  ? C
   C6         1.0     0.132900     0.698000     0.598000    Uiso  ? C
   C7         1.0     0.309200     0.406800     0.620600    Uiso  ? C
   C7         1.0     0.593200     0.902400     0.620600    Uiso  ? C
   C7         1.0     0.097600     0.690800     0.620600    Uiso  ? C
   C6         1.0     0.301200     0.369900     0.601800    Uiso  ? C
   C6         1.0     0.630100     0.931300     0.601800    Uiso  ? C
   C6         1.0     0.068700     0.698800     0.601800    Uiso  ? C
   C7         1.0     0.285700     0.360700     0.558900    Uiso  ? C
   C7         1.0     0.639300     0.925000     0.558900    Uiso  ? C
   C7         1.0     0.075000     0.714300     0.558900    Uiso  ? C
   C5         1.0     0.308200     0.473400     0.618500    Uiso  ? C
   C5         1.0     0.526600     0.834800     0.618500    Uiso  ? C
   C5         1.0     0.165200     0.691800     0.618500    Uiso  ? C
   C4         1.0     0.287400     0.491900     0.607000    Uiso  ? C
   C4         1.0     0.508100     0.795500     0.607000    Uiso  ? C
   C4         1.0     0.204500     0.712600     0.607000    Uiso  ? C
   C3         1.0     0.295200     0.527600     0.628000    Uiso  ? C
   C3         1.0     0.472400     0.767600     0.628000    Uiso  ? C
   C3         1.0     0.232400     0.704800     0.628000    Uiso  ? C
   C2         1.0     0.319700     0.544200     0.660800    Uiso  ? C
   C2         1.0     0.455800     0.775500     0.660800    Uiso  ? C
   C2         1.0     0.224500     0.680300     0.660800    Uiso  ? C
   C3         1.0     0.342200     0.527200     0.670300    Uiso  ? C
   C3         1.0     0.472800     0.815000     0.670300    Uiso  ? C
   C3         1.0     0.185000     0.657800     0.670300    Uiso  ? C
   C4         1.0     0.335200     0.491700     0.649300    Uiso  ? C
   C4         1.0     0.508300     0.843500     0.649300    Uiso  ? C
   C4         1.0     0.156500     0.664800     0.649300    Uiso  ? C
   C5         1.0     0.309200     0.340000     0.624200    Uiso  ? C
   C5         1.0     0.660000     0.969200     0.624200    Uiso  ? C
   C5         1.0     0.030800     0.690800     0.624200    Uiso  ? C
   C4         1.0     0.335200     0.347700     0.656500    Uiso  ? C
   C4         1.0     0.652300     0.987500     0.656500    Uiso  ? C
   C4         1.0     0.012500     0.664800     0.656500    Uiso  ? C
   C3         1.0     0.341600     0.318300     0.679900    Uiso  ? C
   C3         1.0     0.681700     0.023300     0.679900    Uiso  ? C
   C3         1.0     0.976700     0.658400     0.679900    Uiso  ? C
   C2         1.0     0.322500     0.282200     0.670500    Uiso  ? C
   C2         1.0     0.717800     0.040300     0.670500    Uiso  ? C
   C2         1.0     0.959700     0.677500     0.670500    Uiso  ? C
   C3         1.0     0.298500     0.271300     0.636500    Uiso  ? C
   C3         1.0     0.728700     0.027200     0.636500    Uiso  ? C
   C3         1.0     0.972800     0.701500     0.636500    Uiso  ? C
   C4         1.0     0.292100     0.300100     0.613700    Uiso  ? C
   C4         1.0     0.699900     0.992000     0.613700    Uiso  ? C
   C4         1.0     0.008000     0.707900     0.613700    Uiso  ? C
   C5         1.0     0.265900     0.380600     0.485800    Uiso  ? C
   C5         1.0     0.619400     0.885300     0.485800    Uiso  ? C
   C5         1.0     0.114700     0.734100     0.485800    Uiso  ? C
   C4         1.0     0.235200     0.340400     0.474500    Uiso  ? C
   C4         1.0     0.659600     0.894800     0.474500    Uiso  ? C
   C4         1.0     0.105200     0.764800     0.474500    Uiso  ? C
   C3         1.0     0.263800     0.398500     0.411200    Uiso  ? C
   C3         1.0     0.601500     0.865300     0.411200    Uiso  ? C
   C3         1.0     0.134700     0.736200     0.411200    Uiso  ? C
   C2         1.0     0.232100     0.359900     0.400400    Uiso  ? C
   C2         1.0     0.640100     0.872200     0.400400    Uiso  ? C
   C2         1.0     0.127800     0.767900     0.400400    Uiso  ? C
   C4         1.0     0.275400     0.407300     0.453100    Uiso  ? C
   C4         1.0     0.592700     0.868100     0.453100    Uiso  ? C
   C4         1.0     0.131900     0.724600     0.453100    Uiso  ? C
   C1         1.0     0.216800     0.350400     0.354000    Uiso  ? C
   C1         1.0     0.649600     0.866400     0.354000    Uiso  ? C
   C1         1.0     0.133600     0.783200     0.354000    Uiso  ? C
   C1         1.0     0.324700     0.584400     0.682600    Uiso  ? C
   C1         1.0     0.415600     0.740300     0.682600    Uiso  ? C
   C1         1.0     0.259700     0.675300     0.682600    Uiso  ? C
   C1         1.0     0.328500     0.253100     0.692800    Uiso  ? C
   C1         1.0     0.746900     0.075400     0.692800    Uiso  ? C
   C1         1.0     0.924600     0.671500     0.692800    Uiso  ? C
   C4         1.0     0.112800     0.041000     0.785800    Uiso  ? C
   C4         1.0     0.959000     0.071800     0.785800    Uiso  ? C
   C4         1.0     0.928200     0.887200     0.785800    Uiso  ? C
   C3         1.0     0.157100     0.063400     0.785800    Uiso  ? C
   C3         1.0     0.936600     0.093700     0.785800    Uiso  ? C
   C3         1.0     0.906300     0.842900     0.785800    Uiso  ? C
   C4         1.0     0.554000     0.306600     0.735400    Uiso  ? C
   C4         1.0     0.693400     0.247400     0.735400    Uiso  ? C
   C4         1.0     0.752600     0.446000     0.735400    Uiso  ? C
   C3         1.0     0.512400     0.285000     0.735600    Uiso  ? C
   C3         1.0     0.715000     0.227400     0.735600    Uiso  ? C
   C3         1.0     0.772600     0.487600     0.735600    Uiso  ? C
   C3         1.0     0.220400     0.332400     0.429100    Uiso  ? C
   C3         1.0     0.667600     0.888000     0.429100    Uiso  ? C
   C3         1.0     0.112000     0.779600     0.429100    Uiso  ? C
   Zn1        1.0     0.666667     0.333333     0.190400    Uiso  ? Zn
   Zn1        1.0     0.333333     0.666667     0.690400    Uiso  ? Zn
   O1         1.0     0.166667     0.332900     0.250000    Uiso  ? O
   O1         1.0     0.667100     0.833767     0.250000    Uiso  ? O
   O1         1.0     0.166233     0.833333     0.250000    Uiso  ? O
   C6         1.0     0.021650     0.043300     0.250000    Uiso  ? C
   C6         1.0     0.956700     0.978350     0.250000    Uiso  ? C
   C6         1.0     0.021650     0.978350     0.250000    Uiso  ? C
   C5         1.0     0.045350     0.090700     0.250000    Uiso  ? C
   C5         1.0     0.909300     0.954650     0.250000    Uiso  ? C
   C5         1.0     0.045350     0.954650     0.250000    Uiso  ? C
   C2         1.0     0.088800     0.177600     0.250000    Uiso  ? C
   C2         1.0     0.822400     0.911200     0.250000    Uiso  ? C
   C2         1.0     0.088800     0.911200     0.250000    Uiso  ? C
   C1         1.0     0.110450     0.220900     0.250000    Uiso  ? C
   C1         1.0     0.779100     0.889550     0.250000    Uiso  ? C
   C1         1.0     0.110450     0.889550     0.250000    Uiso  ? C
   C6         1.0     0.311950     0.623900     0.250000    Uiso  ? C
   C6         1.0     0.376100     0.688050     0.250000    Uiso  ? C
   C6         1.0     0.311950     0.688050     0.250000    Uiso  ? C
   C5         1.0     0.287800     0.575600     0.250000    Uiso  ? C
   C5         1.0     0.424400     0.712200     0.250000    Uiso  ? C
   C5         1.0     0.287800     0.712200     0.250000    Uiso  ? C
   C2         1.0     0.245050     0.490100     0.250000    Uiso  ? C
   C2         1.0     0.509900     0.754950     0.250000    Uiso  ? C
   C2         1.0     0.245050     0.754950     0.250000    Uiso  ? C
   C1         1.0     0.221550     0.443100     0.250000    Uiso  ? C
   C1         1.0     0.556900     0.778450     0.250000    Uiso  ? C
   C1         1.0     0.221550     0.778450     0.250000    Uiso  ? C
   O1         1.0     0.332900     0.166667     0.750000    Uiso  ? O
   O1         1.0     0.833333     0.166233     0.750000    Uiso  ? O
   O1         1.0     0.833767     0.667100     0.750000    Uiso  ? O
   C6         1.0     0.043300     0.021650     0.750000    Uiso  ? C
   C6         1.0     0.978350     0.021650     0.750000    Uiso  ? C
   C6         1.0     0.978350     0.956700     0.750000    Uiso  ? C
   C5         1.0     0.090700     0.045350     0.750000    Uiso  ? C
   C5         1.0     0.954650     0.045350     0.750000    Uiso  ? C
   C5         1.0     0.954650     0.909300     0.750000    Uiso  ? C
   C2         1.0     0.177600     0.088800     0.750000    Uiso  ? C
   C2         1.0     0.911200     0.088800     0.750000    Uiso  ? C
   C2         1.0     0.911200     0.822400     0.750000    Uiso  ? C
   C1         1.0     0.220900     0.110450     0.750000    Uiso  ? C
   C1         1.0     0.889550     0.110450     0.750000    Uiso  ? C
   C1         1.0     0.889550     0.779100     0.750000    Uiso  ? C
   C6         1.0     0.623900     0.311950     0.750000    Uiso  ? C
   C6         1.0     0.688050     0.311950     0.750000    Uiso  ? C
   C6         1.0     0.688050     0.376100     0.750000    Uiso  ? C
   C5         1.0     0.575600     0.287800     0.750000    Uiso  ? C
   C5         1.0     0.712200     0.287800     0.750000    Uiso  ? C
   C5         1.0     0.712200     0.424400     0.750000    Uiso  ? C
   C2         1.0     0.490100     0.245050     0.750000    Uiso  ? C
   C2         1.0     0.754950     0.245050     0.750000    Uiso  ? C
   C2         1.0     0.754950     0.509900     0.750000    Uiso  ? C
   C1         1.0     0.443100     0.221550     0.750000    Uiso  ? C
   C1         1.0     0.778450     0.221550     0.750000    Uiso  ? C
   C1         1.0     0.778450     0.556900     0.750000    Uiso  ? C
   O1         1.0     0.666667     0.333333     0.250000    Uiso  ? O
   O1         1.0     0.333333     0.666667     0.750000    Uiso  ? O
   C7         1.0     0.042800     0.021400     0.250000    Uiso  ? C
   C7         1.0     0.978600     0.021400     0.250000    Uiso  ? C
   C7         1.0     0.978600     0.957200     0.250000    Uiso  ? C
   C7         1.0     0.021400     0.042800     0.750000    Uiso  ? C
   C7         1.0     0.957200     0.978600     0.750000    Uiso  ? C
   C7         1.0     0.021400     0.978600     0.750000    Uiso  ? C
   C7         1.0     0.289600     0.644800     0.250000    Uiso  ? C
   C7         1.0     0.355200     0.644800     0.250000    Uiso  ? C
   C7         1.0     0.355200     0.710400     0.250000    Uiso  ? C
   C7         1.0     0.644800     0.289600     0.750000    Uiso  ? C
   C7         1.0     0.710400     0.355200     0.750000    Uiso  ? C
   C7         1.0     0.644800     0.355200     0.750000    Uiso  ? C
   H3         1.0     0.448880     0.283660     0.034300    Uiso  ? H
   H3         1.0     0.716340     0.165220     0.034300    Uiso  ? H
   H3         1.0     0.834780     0.551120     0.034300    Uiso  ? H
   H3         1.0     0.414010     0.322160     0.155930    Uiso  ? H
   H3         1.0     0.677840     0.091850     0.155930    Uiso  ? H
   H3         1.0     0.908150     0.585990     0.155930    Uiso  ? H
   H3         1.0     0.329010     0.277550     0.044660    Uiso  ? H
   H3         1.0     0.722450     0.051460     0.044660    Uiso  ? H
   H3         1.0     0.948540     0.670990     0.044660    Uiso  ? H
   H2         1.0     0.478080     0.262940     0.079550    Uiso  ? H
   H2         1.0     0.737060     0.215140     0.079550    Uiso  ? H
   H2         1.0     0.784860     0.521920     0.079550    Uiso  ? H
   H1         1.0     0.545290     0.279100     0.116380    Uiso  ? H
   H1         1.0     0.720900     0.266190     0.116380    Uiso  ? H
   H1         1.0     0.733810     0.454710     0.116380    Uiso  ? H
   H1         1.0     0.542050     0.367940     0.196340    Uiso  ? H
   H1         1.0     0.632060     0.174110     0.196340    Uiso  ? H
   H1         1.0     0.825890     0.457950     0.196340    Uiso  ? H
   H2         1.0     0.478330     0.355410     0.160900    Uiso  ? H
   H2         1.0     0.644590     0.122920     0.160900    Uiso  ? H
   H2         1.0     0.877080     0.521670     0.160900    Uiso  ? H
   H2         1.0     0.381030     0.355800     0.168640    Uiso  ? H
   H2         1.0     0.644200     0.025230     0.168640    Uiso  ? H
   H2         1.0     0.974770     0.618970     0.168640    Uiso  ? H
   H1         1.0     0.328950     0.365260     0.208170    Uiso  ? H
   H1         1.0     0.634740     0.963690     0.208170    Uiso  ? H
   H1         1.0     0.036310     0.671050     0.208170    Uiso  ? H
   H1         1.0     0.237560     0.282110     0.124670    Uiso  ? H
   H1         1.0     0.717890     0.955450     0.124670    Uiso  ? H
   H1         1.0     0.044550     0.762440     0.124670    Uiso  ? H
   H2         1.0     0.287160     0.270260     0.083880    Uiso  ? H
   H2         1.0     0.729740     0.016900     0.083880    Uiso  ? H
   H2         1.0     0.983100     0.712840     0.083880    Uiso  ? H
   H2         1.0     0.314800     0.222390     0.000800    Uiso  ? H
   H2         1.0     0.777610     0.092410     0.000800    Uiso  ? H
   H2         1.0     0.907590     0.685200     0.000800    Uiso  ? H
   H1         1.0     0.422890     0.280070     0.884080    Uiso  ? H
   H1         1.0     0.719930     0.142820     0.884080    Uiso  ? H
   H1         1.0     0.857180     0.577110     0.884080    Uiso  ? H
   H2         1.0     0.442100     0.295700     0.959710    Uiso  ? H
   H2         1.0     0.704300     0.146400     0.959710    Uiso  ? H
   H2         1.0     0.853600     0.557900     0.959710    Uiso  ? H
   H2         1.0     0.019510     0.095170     0.314800    Uiso  ? H
   H2         1.0     0.904830     0.924340     0.314800    Uiso  ? H
   H2         1.0     0.075660     0.980490     0.314800    Uiso  ? H
   H1         1.0     0.060170     0.174950     0.314980    Uiso  ? H
   H1         1.0     0.825050     0.885220     0.314980    Uiso  ? H
   H1         1.0     0.114780     0.939830     0.314980    Uiso  ? H
   H2         1.0     0.340240     0.571540     0.223290    Uiso  ? H
   H2         1.0     0.428460     0.768700     0.223290    Uiso  ? H
   H2         1.0     0.231300     0.659760     0.223290    Uiso  ? H
   H1         1.0     0.300090     0.493970     0.223260    Uiso  ? H
   H1         1.0     0.506030     0.806120     0.223260    Uiso  ? H
   H1         1.0     0.193880     0.699910     0.223260    Uiso  ? H
   H1         1.0     0.299390     0.196750     0.918240    Uiso  ? H
   H1         1.0     0.803250     0.102640     0.918240    Uiso  ? H
   H1         1.0     0.897360     0.700610     0.918240    Uiso  ? H
   H3         1.0     0.448880     0.165220     0.465700    Uiso  ? H
   H3         1.0     0.834780     0.283660     0.465700    Uiso  ? H
   H3         1.0     0.716340     0.551120     0.465700    Uiso  ? H
   H3         1.0     0.414010     0.091850     0.344070    Uiso  ? H
   H3         1.0     0.908150     0.322160     0.344070    Uiso  ? H
   H3         1.0     0.677840     0.585990     0.344070    Uiso  ? H
   H3         1.0     0.329010     0.051460     0.455340    Uiso  ? H
   H3         1.0     0.948540     0.277550     0.455340    Uiso  ? H
   H3         1.0     0.722450     0.670990     0.455340    Uiso  ? H
   H2         1.0     0.478080     0.215140     0.420450    Uiso  ? H
   H2         1.0     0.784860     0.262940     0.420450    Uiso  ? H
   H2         1.0     0.737060     0.521920     0.420450    Uiso  ? H
   H1         1.0     0.545290     0.266190     0.383620    Uiso  ? H
   H1         1.0     0.733810     0.279100     0.383620    Uiso  ? H
   H1         1.0     0.720900     0.454710     0.383620    Uiso  ? H
   H1         1.0     0.542050     0.174110     0.303660    Uiso  ? H
   H1         1.0     0.825890     0.367940     0.303660    Uiso  ? H
   H1         1.0     0.632060     0.457950     0.303660    Uiso  ? H
   H2         1.0     0.478330     0.122920     0.339100    Uiso  ? H
   H2         1.0     0.877080     0.355410     0.339100    Uiso  ? H
   H2         1.0     0.644590     0.521670     0.339100    Uiso  ? H
   H2         1.0     0.381030     0.025230     0.331360    Uiso  ? H
   H2         1.0     0.974770     0.355800     0.331360    Uiso  ? H
   H2         1.0     0.644200     0.618970     0.331360    Uiso  ? H
   H1         1.0     0.036310     0.365260     0.291830    Uiso  ? H
   H1         1.0     0.634740     0.671050     0.291830    Uiso  ? H
   H1         1.0     0.328950     0.963690     0.291830    Uiso  ? H
   H1         1.0     0.044550     0.282110     0.375330    Uiso  ? H
   H1         1.0     0.717890     0.762440     0.375330    Uiso  ? H
   H1         1.0     0.237560     0.955450     0.375330    Uiso  ? H
   H2         1.0     0.287160     0.016900     0.416120    Uiso  ? H
   H2         1.0     0.983100     0.270260     0.416120    Uiso  ? H
   H2         1.0     0.729740     0.712840     0.416120    Uiso  ? H
   H2         1.0     0.314800     0.092410     0.499200    Uiso  ? H
   H2         1.0     0.907590     0.222390     0.499200    Uiso  ? H
   H2         1.0     0.777610     0.685200     0.499200    Uiso  ? H
   H1         1.0     0.422890     0.142820     0.615920    Uiso  ? H
   H1         1.0     0.857180     0.280070     0.615920    Uiso  ? H
   H1         1.0     0.719930     0.577110     0.615920    Uiso  ? H
   H2         1.0     0.442100     0.146400     0.540290    Uiso  ? H
   H2         1.0     0.853600     0.295700     0.540290    Uiso  ? H
   H2         1.0     0.704300     0.557900     0.540290    Uiso  ? H
   H2         1.0     0.075660     0.095170     0.185200    Uiso  ? H
   H2         1.0     0.904830     0.980490     0.185200    Uiso  ? H
   H2         1.0     0.019510     0.924340     0.185200    Uiso  ? H
   H1         1.0     0.114780     0.174950     0.185020    Uiso  ? H
   H1         1.0     0.825050     0.939830     0.185020    Uiso  ? H
   H1         1.0     0.060170     0.885220     0.185020    Uiso  ? H
   H2         1.0     0.231300     0.571540     0.276710    Uiso  ? H
   H2         1.0     0.428460     0.659760     0.276710    Uiso  ? H
   H2         1.0     0.340240     0.768700     0.276710    Uiso  ? H
   H1         1.0     0.193880     0.493970     0.276740    Uiso  ? H
   H1         1.0     0.506030     0.699910     0.276740    Uiso  ? H
   H1         1.0     0.300090     0.806120     0.276740    Uiso  ? H
   H1         1.0     0.299390     0.102640     0.581760    Uiso  ? H
   H1         1.0     0.897360     0.196750     0.581760    Uiso  ? H
   H1         1.0     0.803250     0.700610     0.581760    Uiso  ? H
   H3         1.0     0.165220     0.448880     0.965700    Uiso  ? H
   H3         1.0     0.551120     0.716340     0.965700    Uiso  ? H
   H3         1.0     0.283660     0.834780     0.965700    Uiso  ? H
   H3         1.0     0.091850     0.414010     0.844070    Uiso  ? H
   H3         1.0     0.585990     0.677840     0.844070    Uiso  ? H
   H3         1.0     0.322160     0.908150     0.844070    Uiso  ? H
   H3         1.0     0.051460     0.329010     0.955340    Uiso  ? H
   H3         1.0     0.670990     0.722450     0.955340    Uiso  ? H
   H3         1.0     0.277550     0.948540     0.955340    Uiso  ? H
   H2         1.0     0.215140     0.478080     0.920450    Uiso  ? H
   H2         1.0     0.521920     0.737060     0.920450    Uiso  ? H
   H2         1.0     0.262940     0.784860     0.920450    Uiso  ? H
   H1         1.0     0.266190     0.545290     0.883620    Uiso  ? H
   H1         1.0     0.454710     0.720900     0.883620    Uiso  ? H
   H1         1.0     0.279100     0.733810     0.883620    Uiso  ? H
   H1         1.0     0.174110     0.542050     0.803660    Uiso  ? H
   H1         1.0     0.457950     0.632060     0.803660    Uiso  ? H
   H1         1.0     0.367940     0.825890     0.803660    Uiso  ? H
   H2         1.0     0.122920     0.478330     0.839100    Uiso  ? H
   H2         1.0     0.521670     0.644590     0.839100    Uiso  ? H
   H2         1.0     0.355410     0.877080     0.839100    Uiso  ? H
   H2         1.0     0.025230     0.381030     0.831360    Uiso  ? H
   H2         1.0     0.618970     0.644200     0.831360    Uiso  ? H
   H2         1.0     0.355800     0.974770     0.831360    Uiso  ? H
   H1         1.0     0.365260     0.036310     0.791830    Uiso  ? H
   H1         1.0     0.963690     0.328950     0.791830    Uiso  ? H
   H1         1.0     0.671050     0.634740     0.791830    Uiso  ? H
   H1         1.0     0.282110     0.044550     0.875330    Uiso  ? H
   H1         1.0     0.955450     0.237560     0.875330    Uiso  ? H
   H1         1.0     0.762440     0.717890     0.875330    Uiso  ? H
   H2         1.0     0.016900     0.287160     0.916120    Uiso  ? H
   H2         1.0     0.712840     0.729740     0.916120    Uiso  ? H
   H2         1.0     0.270260     0.983100     0.916120    Uiso  ? H
   H2         1.0     0.092410     0.314800     0.999200    Uiso  ? H
   H2         1.0     0.685200     0.777610     0.999200    Uiso  ? H
   H2         1.0     0.222390     0.907590     0.999200    Uiso  ? H
   H1         1.0     0.142820     0.422890     0.115920    Uiso  ? H
   H1         1.0     0.577110     0.719930     0.115920    Uiso  ? H
   H1         1.0     0.280070     0.857180     0.115920    Uiso  ? H
   H2         1.0     0.146400     0.442100     0.040290    Uiso  ? H
   H2         1.0     0.557900     0.704300     0.040290    Uiso  ? H
   H2         1.0     0.295700     0.853600     0.040290    Uiso  ? H
   H2         1.0     0.095170     0.075660     0.685200    Uiso  ? H
   H2         1.0     0.924340     0.019510     0.685200    Uiso  ? H
   H2         1.0     0.980490     0.904830     0.685200    Uiso  ? H
   H1         1.0     0.174950     0.114780     0.685020    Uiso  ? H
   H1         1.0     0.885220     0.060170     0.685020    Uiso  ? H
   H1         1.0     0.939830     0.825050     0.685020    Uiso  ? H
   H2         1.0     0.571540     0.231300     0.776710    Uiso  ? H
   H2         1.0     0.768700     0.340240     0.776710    Uiso  ? H
   H2         1.0     0.659760     0.428460     0.776710    Uiso  ? H
   H1         1.0     0.493970     0.193880     0.776740    Uiso  ? H
   H1         1.0     0.806120     0.300090     0.776740    Uiso  ? H
   H1         1.0     0.699910     0.506030     0.776740    Uiso  ? H
   H1         1.0     0.102640     0.299390     0.081760    Uiso  ? H
   H1         1.0     0.700610     0.803250     0.081760    Uiso  ? H
   H1         1.0     0.196750     0.897360     0.081760    Uiso  ? H
   H3         1.0     0.283660     0.448880     0.534300    Uiso  ? H
   H3         1.0     0.551120     0.834780     0.534300    Uiso  ? H
   H3         1.0     0.165220     0.716340     0.534300    Uiso  ? H
   H3         1.0     0.322160     0.414010     0.655930    Uiso  ? H
   H3         1.0     0.585990     0.908150     0.655930    Uiso  ? H
   H3         1.0     0.091850     0.677840     0.655930    Uiso  ? H
   H3         1.0     0.277550     0.329010     0.544660    Uiso  ? H
   H3         1.0     0.670990     0.948540     0.544660    Uiso  ? H
   H3         1.0     0.051460     0.722450     0.544660    Uiso  ? H
   H2         1.0     0.262940     0.478080     0.579550    Uiso  ? H
   H2         1.0     0.521920     0.784860     0.579550    Uiso  ? H
   H2         1.0     0.215140     0.737060     0.579550    Uiso  ? H
   H1         1.0     0.279100     0.545290     0.616380    Uiso  ? H
   H1         1.0     0.454710     0.733810     0.616380    Uiso  ? H
   H1         1.0     0.266190     0.720900     0.616380    Uiso  ? H
   H1         1.0     0.367940     0.542050     0.696340    Uiso  ? H
   H1         1.0     0.457950     0.825890     0.696340    Uiso  ? H
   H1         1.0     0.174110     0.632060     0.696340    Uiso  ? H
   H2         1.0     0.355410     0.478330     0.660900    Uiso  ? H
   H2         1.0     0.521670     0.877080     0.660900    Uiso  ? H
   H2         1.0     0.122920     0.644590     0.660900    Uiso  ? H
   H2         1.0     0.355800     0.381030     0.668640    Uiso  ? H
   H2         1.0     0.618970     0.974770     0.668640    Uiso  ? H
   H2         1.0     0.025230     0.644200     0.668640    Uiso  ? H
   H1         1.0     0.365260     0.328950     0.708170    Uiso  ? H
   H1         1.0     0.671050     0.036310     0.708170    Uiso  ? H
   H1         1.0     0.963690     0.634740     0.708170    Uiso  ? H
   H1         1.0     0.282110     0.237560     0.624670    Uiso  ? H
   H1         1.0     0.762440     0.044550     0.624670    Uiso  ? H
   H1         1.0     0.955450     0.717890     0.624670    Uiso  ? H
   H2         1.0     0.270260     0.287160     0.583880    Uiso  ? H
   H2         1.0     0.712840     0.983100     0.583880    Uiso  ? H
   H2         1.0     0.016900     0.729740     0.583880    Uiso  ? H
   H2         1.0     0.222390     0.314800     0.500800    Uiso  ? H
   H2         1.0     0.685200     0.907590     0.500800    Uiso  ? H
   H2         1.0     0.092410     0.777610     0.500800    Uiso  ? H
   H1         1.0     0.280070     0.422890     0.384080    Uiso  ? H
   H1         1.0     0.577110     0.857180     0.384080    Uiso  ? H
   H1         1.0     0.142820     0.719930     0.384080    Uiso  ? H
   H2         1.0     0.295700     0.442100     0.459710    Uiso  ? H
   H2         1.0     0.557900     0.853600     0.459710    Uiso  ? H
   H2         1.0     0.146400     0.704300     0.459710    Uiso  ? H
   H2         1.0     0.095170     0.019510     0.814800    Uiso  ? H
   H2         1.0     0.980490     0.075660     0.814800    Uiso  ? H
   H2         1.0     0.924340     0.904830     0.814800    Uiso  ? H
   H1         1.0     0.174950     0.060170     0.814980    Uiso  ? H
   H1         1.0     0.939830     0.114780     0.814980    Uiso  ? H
   H1         1.0     0.885220     0.825050     0.814980    Uiso  ? H
   H2         1.0     0.571540     0.340240     0.723290    Uiso  ? H
   H2         1.0     0.659760     0.231300     0.723290    Uiso  ? H
   H2         1.0     0.768700     0.428460     0.723290    Uiso  ? H
   H1         1.0     0.493970     0.300090     0.723260    Uiso  ? H
   H1         1.0     0.699910     0.193880     0.723260    Uiso  ? H
   H1         1.0     0.806120     0.506030     0.723260    Uiso  ? H
   H1         1.0     0.196750     0.299390     0.418240    Uiso  ? H
   H1         1.0     0.700610     0.897360     0.418240    Uiso  ? H
   H1         1.0     0.102640     0.803250     0.418240    Uiso  ? H
   H3         1.0     0.078310     0.038840     0.250000    Uiso  ? H
   H3         1.0     0.961160     0.039470     0.250000    Uiso  ? H
   H3         1.0     0.960530     0.921690     0.250000    Uiso  ? H
   H3         1.0     0.039470     0.078310     0.750000    Uiso  ? H
   H3         1.0     0.921690     0.961160     0.750000    Uiso  ? H
   H3         1.0     0.038840     0.960530     0.750000    Uiso  ? H
   H3         1.0     0.254100     0.626450     0.250000    Uiso  ? H
   H3         1.0     0.373550     0.627650     0.250000    Uiso  ? H
   H3         1.0     0.372350     0.745900     0.250000    Uiso  ? H
   H3         1.0     0.626450     0.372350     0.750000    Uiso  ? H
   H3         1.0     0.627650     0.254100     0.750000    Uiso  ? H
   H3         1.0     0.745900     0.373550     0.750000    Uiso  ? H
