#======================================================================

# CRYSTAL DATA

#----------------------------------------------------------------------

data_VESTA_phase_1


_chemical_name_common                  ''
_cell_length_a                         42.84340
_cell_length_b                         42.84340
_cell_length_c                         42.84340
_cell_angle_alpha                      90
_cell_angle_beta                       90
_cell_angle_gamma                      90
_space_group_name_H-M_alt              'P 1'
_space_group_IT_number                 1

loop_
_space_group_symop_operation_xyz
   'x, y, z'

loop_
   _atom_site_label
   _atom_site_occupancy
   _atom_site_fract_x
   _atom_site_fract_y
   _atom_site_fract_z
   _atom_site_adp_type
   _atom_site_B_iso_or_equiv
   _atom_site_type_symbol
   Zn1        1.0     0.000000      0.128867      0.128867     Biso  1.000000 Zn
   Zn1        1.0     0.000000      0.871133      0.871133     Biso  1.000000 Zn
   Zn1        1.0     0.000000      0.871133      0.128867     Biso  1.000000 Zn
   Zn1        1.0     0.000000      0.128867      0.871133     Biso  1.000000 Zn
   Zn1        1.0     0.128867      0.000000      0.128867     Biso  1.000000 Zn
   Zn1        1.0     0.871133      0.000000      0.871133     Biso  1.000000 Zn
   Zn1        1.0     0.128867      0.000000      0.871133     Biso  1.000000 Zn
   Zn1        1.0     0.871133      0.000000      0.128867     Biso  1.000000 Zn
   Zn1        1.0     0.128867      0.128867      0.000000     Biso  1.000000 Zn
   Zn1        1.0     0.871133      0.871133      0.000000     Biso  1.000000 Zn
   Zn1        1.0     0.871133      0.128867      0.000000     Biso  1.000000 Zn
   Zn1        1.0     0.128867      0.871133      0.000000     Biso  1.000000 Zn
   Zn1        1.0     0.000000      0.628867      0.628867     Biso  1.000000 Zn
   Zn1        1.0     0.000000      0.371133      0.371133     Biso  1.000000 Zn
   Zn1        1.0     0.000000      0.371133      0.628867     Biso  1.000000 Zn
   Zn1        1.0     0.000000      0.628867      0.371133     Biso  1.000000 Zn
   Zn1        1.0     0.128867      0.500000      0.628867     Biso  1.000000 Zn
   Zn1        1.0     0.871133      0.500000      0.371133     Biso  1.000000 Zn
   Zn1        1.0     0.128867      0.500000      0.371133     Biso  1.000000 Zn
   Zn1        1.0     0.871133      0.500000      0.628867     Biso  1.000000 Zn
   Zn1        1.0     0.128867      0.628867      0.500000     Biso  1.000000 Zn
   Zn1        1.0     0.871133      0.371133      0.500000     Biso  1.000000 Zn
   Zn1        1.0     0.871133      0.628867      0.500000     Biso  1.000000 Zn
   Zn1        1.0     0.128867      0.371133      0.500000     Biso  1.000000 Zn
   Zn1        1.0     0.500000      0.128867      0.628867     Biso  1.000000 Zn
   Zn1        1.0     0.500000      0.871133      0.371133     Biso  1.000000 Zn
   Zn1        1.0     0.500000      0.871133      0.628867     Biso  1.000000 Zn
   Zn1        1.0     0.500000      0.128867      0.371133     Biso  1.000000 Zn
   Zn1        1.0     0.628867      0.000000      0.628867     Biso  1.000000 Zn
   Zn1        1.0     0.371133      0.000000      0.371133     Biso  1.000000 Zn
   Zn1        1.0     0.628867      0.000000      0.371133     Biso  1.000000 Zn
   Zn1        1.0     0.371133      0.000000      0.628867     Biso  1.000000 Zn
   Zn1        1.0     0.628867      0.128867      0.500000     Biso  1.000000 Zn
   Zn1        1.0     0.371133      0.871133      0.500000     Biso  1.000000 Zn
   Zn1        1.0     0.371133      0.128867      0.500000     Biso  1.000000 Zn
   Zn1        1.0     0.628867      0.871133      0.500000     Biso  1.000000 Zn
   Zn1        1.0     0.500000      0.628867      0.128867     Biso  1.000000 Zn
   Zn1        1.0     0.500000      0.371133      0.871133     Biso  1.000000 Zn
   Zn1        1.0     0.500000      0.371133      0.128867     Biso  1.000000 Zn
   Zn1        1.0     0.500000      0.628867      0.871133     Biso  1.000000 Zn
   Zn1        1.0     0.628867      0.500000      0.128867     Biso  1.000000 Zn
   Zn1        1.0     0.371133      0.500000      0.871133     Biso  1.000000 Zn
   Zn1        1.0     0.628867      0.500000      0.871133     Biso  1.000000 Zn
   Zn1        1.0     0.371133      0.500000      0.128867     Biso  1.000000 Zn
   Zn1        1.0     0.628867      0.628867      0.000000     Biso  1.000000 Zn
   Zn1        1.0     0.371133      0.371133      0.000000     Biso  1.000000 Zn
   Zn1        1.0     0.371133      0.628867      0.000000     Biso  1.000000 Zn
   Zn1        1.0     0.628867      0.371133      0.000000     Biso  1.000000 Zn
   Zn2        1.0     0.000000      0.178895      0.178895     Biso  1.000000 Zn
   Zn2        1.0     0.000000      0.821105      0.821105     Biso  1.000000 Zn
   Zn2        1.0     0.000000      0.821105      0.178895     Biso  1.000000 Zn
   Zn2        1.0     0.000000      0.178895      0.821105     Biso  1.000000 Zn
   Zn2        1.0     0.178895      0.000000      0.178895     Biso  1.000000 Zn
   Zn2        1.0     0.821105      0.000000      0.821105     Biso  1.000000 Zn
   Zn2        1.0     0.178895      0.000000      0.821105     Biso  1.000000 Zn
   Zn2        1.0     0.821105      0.000000      0.178895     Biso  1.000000 Zn
   Zn2        1.0     0.178895      0.178895      0.000000     Biso  1.000000 Zn
   Zn2        1.0     0.821105      0.821105      0.000000     Biso  1.000000 Zn
   Zn2        1.0     0.821105      0.178895      0.000000     Biso  1.000000 Zn
   Zn2        1.0     0.178895      0.821105      0.000000     Biso  1.000000 Zn
   Zn2        1.0     0.000000      0.678895      0.678895     Biso  1.000000 Zn
   Zn2        1.0     0.000000      0.321105      0.321105     Biso  1.000000 Zn
   Zn2        1.0     0.000000      0.321105      0.678895     Biso  1.000000 Zn
   Zn2        1.0     0.000000      0.678895      0.321105     Biso  1.000000 Zn
   Zn2        1.0     0.178895      0.500000      0.678895     Biso  1.000000 Zn
   Zn2        1.0     0.821105      0.500000      0.321105     Biso  1.000000 Zn
   Zn2        1.0     0.178895      0.500000      0.321105     Biso  1.000000 Zn
   Zn2        1.0     0.821105      0.500000      0.678895     Biso  1.000000 Zn
   Zn2        1.0     0.178895      0.678895      0.500000     Biso  1.000000 Zn
   Zn2        1.0     0.821105      0.321105      0.500000     Biso  1.000000 Zn
   Zn2        1.0     0.821105      0.678895      0.500000     Biso  1.000000 Zn
   Zn2        1.0     0.178895      0.321105      0.500000     Biso  1.000000 Zn
   Zn2        1.0     0.500000      0.178895      0.678895     Biso  1.000000 Zn
   Zn2        1.0     0.500000      0.821105      0.321105     Biso  1.000000 Zn
   Zn2        1.0     0.500000      0.821105      0.678895     Biso  1.000000 Zn
   Zn2        1.0     0.500000      0.178895      0.321105     Biso  1.000000 Zn
   Zn2        1.0     0.678895      0.000000      0.678895     Biso  1.000000 Zn
   Zn2        1.0     0.321105      0.000000      0.321105     Biso  1.000000 Zn
   Zn2        1.0     0.678895      0.000000      0.321105     Biso  1.000000 Zn
   Zn2        1.0     0.321105      0.000000      0.678895     Biso  1.000000 Zn
   Zn2        1.0     0.678895      0.178895      0.500000     Biso  1.000000 Zn
   Zn2        1.0     0.321105      0.821105      0.500000     Biso  1.000000 Zn
   Zn2        1.0     0.321105      0.178895      0.500000     Biso  1.000000 Zn
   Zn2        1.0     0.678895      0.821105      0.500000     Biso  1.000000 Zn
   Zn2        1.0     0.500000      0.678895      0.178895     Biso  1.000000 Zn
   Zn2        1.0     0.500000      0.321105      0.821105     Biso  1.000000 Zn
   Zn2        1.0     0.500000      0.321105      0.178895     Biso  1.000000 Zn
   Zn2        1.0     0.500000      0.678895      0.821105     Biso  1.000000 Zn
   Zn2        1.0     0.678895      0.500000      0.178895     Biso  1.000000 Zn
   Zn2        1.0     0.321105      0.500000      0.821105     Biso  1.000000 Zn
   Zn2        1.0     0.678895      0.500000      0.821105     Biso  1.000000 Zn
   Zn2        1.0     0.321105      0.500000      0.178895     Biso  1.000000 Zn
   Zn2        1.0     0.678895      0.678895      0.000000     Biso  1.000000 Zn
   Zn2        1.0     0.321105      0.321105      0.000000     Biso  1.000000 Zn
   Zn2        1.0     0.321105      0.678895      0.000000     Biso  1.000000 Zn
   Zn2        1.0     0.678895      0.321105      0.000000     Biso  1.000000 Zn
   O1         1.0     0.032850      0.112400      0.158580     Biso  1.000000 O
   O1         1.0     0.967150      0.887600      0.841420     Biso  1.000000 O
   O1         1.0     0.967150      0.887600      0.158580     Biso  1.000000 O
   O1         1.0     0.032850      0.112400      0.841420     Biso  1.000000 O
   O1         1.0     0.967150      0.112400      0.841420     Biso  1.000000 O
   O1         1.0     0.032850      0.887600      0.158580     Biso  1.000000 O
   O1         1.0     0.032850      0.887600      0.841420     Biso  1.000000 O
   O1         1.0     0.967150      0.112400      0.158580     Biso  1.000000 O
   O1         1.0     0.158580      0.032850      0.112400     Biso  1.000000 O
   O1         1.0     0.841420      0.967150      0.887600     Biso  1.000000 O
   O1         1.0     0.158580      0.967150      0.887600     Biso  1.000000 O
   O1         1.0     0.841420      0.032850      0.112400     Biso  1.000000 O
   O1         1.0     0.841420      0.967150      0.112400     Biso  1.000000 O
   O1         1.0     0.158580      0.032850      0.887600     Biso  1.000000 O
   O1         1.0     0.841420      0.032850      0.887600     Biso  1.000000 O
   O1         1.0     0.158580      0.967150      0.112400     Biso  1.000000 O
   O1         1.0     0.112400      0.158580      0.032850     Biso  1.000000 O
   O1         1.0     0.887600      0.841420      0.967150     Biso  1.000000 O
   O1         1.0     0.887600      0.158580      0.967150     Biso  1.000000 O
   O1         1.0     0.112400      0.841420      0.032850     Biso  1.000000 O
   O1         1.0     0.112400      0.841420      0.967150     Biso  1.000000 O
   O1         1.0     0.887600      0.158580      0.032850     Biso  1.000000 O
   O1         1.0     0.887600      0.841420      0.032850     Biso  1.000000 O
   O1         1.0     0.112400      0.158580      0.967150     Biso  1.000000 O
   O1         1.0     0.112400      0.032850      0.841420     Biso  1.000000 O
   O1         1.0     0.887600      0.967150      0.158580     Biso  1.000000 O
   O1         1.0     0.887600      0.967150      0.841420     Biso  1.000000 O
   O1         1.0     0.112400      0.032850      0.158580     Biso  1.000000 O
   O1         1.0     0.112400      0.967150      0.158580     Biso  1.000000 O
   O1         1.0     0.887600      0.032850      0.841420     Biso  1.000000 O
   O1         1.0     0.887600      0.032850      0.158580     Biso  1.000000 O
   O1         1.0     0.112400      0.967150      0.841420     Biso  1.000000 O
   O1         1.0     0.032850      0.158580      0.887600     Biso  1.000000 O
   O1         1.0     0.967150      0.841420      0.112400     Biso  1.000000 O
   O1         1.0     0.967150      0.158580      0.112400     Biso  1.000000 O
   O1         1.0     0.032850      0.841420      0.887600     Biso  1.000000 O
   O1         1.0     0.967150      0.841420      0.887600     Biso  1.000000 O
   O1         1.0     0.032850      0.158580      0.112400     Biso  1.000000 O
   O1         1.0     0.032850      0.841420      0.112400     Biso  1.000000 O
   O1         1.0     0.967150      0.158580      0.887600     Biso  1.000000 O
   O1         1.0     0.158580      0.112400      0.967150     Biso  1.000000 O
   O1         1.0     0.841420      0.887600      0.032850     Biso  1.000000 O
   O1         1.0     0.158580      0.887600      0.032850     Biso  1.000000 O
   O1         1.0     0.841420      0.112400      0.967150     Biso  1.000000 O
   O1         1.0     0.841420      0.112400      0.032850     Biso  1.000000 O
   O1         1.0     0.158580      0.887600      0.967150     Biso  1.000000 O
   O1         1.0     0.841420      0.887600      0.967150     Biso  1.000000 O
   O1         1.0     0.158580      0.112400      0.032850     Biso  1.000000 O
   O1         1.0     0.032850      0.612400      0.658580     Biso  1.000000 O
   O1         1.0     0.967150      0.387600      0.341420     Biso  1.000000 O
   O1         1.0     0.967150      0.387600      0.658580     Biso  1.000000 O
   O1         1.0     0.032850      0.612400      0.341420     Biso  1.000000 O
   O1         1.0     0.967150      0.612400      0.341420     Biso  1.000000 O
   O1         1.0     0.032850      0.387600      0.658580     Biso  1.000000 O
   O1         1.0     0.032850      0.387600      0.341420     Biso  1.000000 O
   O1         1.0     0.967150      0.612400      0.658580     Biso  1.000000 O
   O1         1.0     0.158580      0.532850      0.612400     Biso  1.000000 O
   O1         1.0     0.841420      0.467150      0.387600     Biso  1.000000 O
   O1         1.0     0.158580      0.467150      0.387600     Biso  1.000000 O
   O1         1.0     0.841420      0.532850      0.612400     Biso  1.000000 O
   O1         1.0     0.841420      0.467150      0.612400     Biso  1.000000 O
   O1         1.0     0.158580      0.532850      0.387600     Biso  1.000000 O
   O1         1.0     0.841420      0.532850      0.387600     Biso  1.000000 O
   O1         1.0     0.158580      0.467150      0.612400     Biso  1.000000 O
   O1         1.0     0.112400      0.658580      0.532850     Biso  1.000000 O
   O1         1.0     0.887600      0.341420      0.467150     Biso  1.000000 O
   O1         1.0     0.887600      0.658580      0.467150     Biso  1.000000 O
   O1         1.0     0.112400      0.341420      0.532850     Biso  1.000000 O
   O1         1.0     0.112400      0.341420      0.467150     Biso  1.000000 O
   O1         1.0     0.887600      0.658580      0.532850     Biso  1.000000 O
   O1         1.0     0.887600      0.341420      0.532850     Biso  1.000000 O
   O1         1.0     0.112400      0.658580      0.467150     Biso  1.000000 O
   O1         1.0     0.112400      0.532850      0.341420     Biso  1.000000 O
   O1         1.0     0.887600      0.467150      0.658580     Biso  1.000000 O
   O1         1.0     0.887600      0.467150      0.341420     Biso  1.000000 O
   O1         1.0     0.112400      0.532850      0.658580     Biso  1.000000 O
   O1         1.0     0.112400      0.467150      0.658580     Biso  1.000000 O
   O1         1.0     0.887600      0.532850      0.341420     Biso  1.000000 O
   O1         1.0     0.887600      0.532850      0.658580     Biso  1.000000 O
   O1         1.0     0.112400      0.467150      0.341420     Biso  1.000000 O
   O1         1.0     0.032850      0.658580      0.387600     Biso  1.000000 O
   O1         1.0     0.967150      0.341420      0.612400     Biso  1.000000 O
   O1         1.0     0.967150      0.658580      0.612400     Biso  1.000000 O
   O1         1.0     0.032850      0.341420      0.387600     Biso  1.000000 O
   O1         1.0     0.967150      0.341420      0.387600     Biso  1.000000 O
   O1         1.0     0.032850      0.658580      0.612400     Biso  1.000000 O
   O1         1.0     0.032850      0.341420      0.612400     Biso  1.000000 O
   O1         1.0     0.967150      0.658580      0.387600     Biso  1.000000 O
   O1         1.0     0.158580      0.612400      0.467150     Biso  1.000000 O
   O1         1.0     0.841420      0.387600      0.532850     Biso  1.000000 O
   O1         1.0     0.158580      0.387600      0.532850     Biso  1.000000 O
   O1         1.0     0.841420      0.612400      0.467150     Biso  1.000000 O
   O1         1.0     0.841420      0.612400      0.532850     Biso  1.000000 O
   O1         1.0     0.158580      0.387600      0.467150     Biso  1.000000 O
   O1         1.0     0.841420      0.387600      0.467150     Biso  1.000000 O
   O1         1.0     0.158580      0.612400      0.532850     Biso  1.000000 O
   O1         1.0     0.532850      0.112400      0.658580     Biso  1.000000 O
   O1         1.0     0.467150      0.887600      0.341420     Biso  1.000000 O
   O1         1.0     0.467150      0.887600      0.658580     Biso  1.000000 O
   O1         1.0     0.532850      0.112400      0.341420     Biso  1.000000 O
   O1         1.0     0.467150      0.112400      0.341420     Biso  1.000000 O
   O1         1.0     0.532850      0.887600      0.658580     Biso  1.000000 O
   O1         1.0     0.532850      0.887600      0.341420     Biso  1.000000 O
   O1         1.0     0.467150      0.112400      0.658580     Biso  1.000000 O
   O1         1.0     0.658580      0.032850      0.612400     Biso  1.000000 O
   O1         1.0     0.341420      0.967150      0.387600     Biso  1.000000 O
   O1         1.0     0.658580      0.967150      0.387600     Biso  1.000000 O
   O1         1.0     0.341420      0.032850      0.612400     Biso  1.000000 O
   O1         1.0     0.341420      0.967150      0.612400     Biso  1.000000 O
   O1         1.0     0.658580      0.032850      0.387600     Biso  1.000000 O
   O1         1.0     0.341420      0.032850      0.387600     Biso  1.000000 O
   O1         1.0     0.658580      0.967150      0.612400     Biso  1.000000 O
   O1         1.0     0.612400      0.158580      0.532850     Biso  1.000000 O
   O1         1.0     0.387600      0.841420      0.467150     Biso  1.000000 O
   O1         1.0     0.387600      0.158580      0.467150     Biso  1.000000 O
   O1         1.0     0.612400      0.841420      0.532850     Biso  1.000000 O
   O1         1.0     0.612400      0.841420      0.467150     Biso  1.000000 O
   O1         1.0     0.387600      0.158580      0.532850     Biso  1.000000 O
   O1         1.0     0.387600      0.841420      0.532850     Biso  1.000000 O
   O1         1.0     0.612400      0.158580      0.467150     Biso  1.000000 O
   O1         1.0     0.612400      0.032850      0.341420     Biso  1.000000 O
   O1         1.0     0.387600      0.967150      0.658580     Biso  1.000000 O
   O1         1.0     0.387600      0.967150      0.341420     Biso  1.000000 O
   O1         1.0     0.612400      0.032850      0.658580     Biso  1.000000 O
   O1         1.0     0.612400      0.967150      0.658580     Biso  1.000000 O
   O1         1.0     0.387600      0.032850      0.341420     Biso  1.000000 O
   O1         1.0     0.387600      0.032850      0.658580     Biso  1.000000 O
   O1         1.0     0.612400      0.967150      0.341420     Biso  1.000000 O
   O1         1.0     0.532850      0.158580      0.387600     Biso  1.000000 O
   O1         1.0     0.467150      0.841420      0.612400     Biso  1.000000 O
   O1         1.0     0.467150      0.158580      0.612400     Biso  1.000000 O
   O1         1.0     0.532850      0.841420      0.387600     Biso  1.000000 O
   O1         1.0     0.467150      0.841420      0.387600     Biso  1.000000 O
   O1         1.0     0.532850      0.158580      0.612400     Biso  1.000000 O
   O1         1.0     0.532850      0.841420      0.612400     Biso  1.000000 O
   O1         1.0     0.467150      0.158580      0.387600     Biso  1.000000 O
   O1         1.0     0.658580      0.112400      0.467150     Biso  1.000000 O
   O1         1.0     0.341420      0.887600      0.532850     Biso  1.000000 O
   O1         1.0     0.658580      0.887600      0.532850     Biso  1.000000 O
   O1         1.0     0.341420      0.112400      0.467150     Biso  1.000000 O
   O1         1.0     0.341420      0.112400      0.532850     Biso  1.000000 O
   O1         1.0     0.658580      0.887600      0.467150     Biso  1.000000 O
   O1         1.0     0.341420      0.887600      0.467150     Biso  1.000000 O
   O1         1.0     0.658580      0.112400      0.532850     Biso  1.000000 O
   O1         1.0     0.532850      0.612400      0.158580     Biso  1.000000 O
   O1         1.0     0.467150      0.387600      0.841420     Biso  1.000000 O
   O1         1.0     0.467150      0.387600      0.158580     Biso  1.000000 O
   O1         1.0     0.532850      0.612400      0.841420     Biso  1.000000 O
   O1         1.0     0.467150      0.612400      0.841420     Biso  1.000000 O
   O1         1.0     0.532850      0.387600      0.158580     Biso  1.000000 O
   O1         1.0     0.532850      0.387600      0.841420     Biso  1.000000 O
   O1         1.0     0.467150      0.612400      0.158580     Biso  1.000000 O
   O1         1.0     0.658580      0.532850      0.112400     Biso  1.000000 O
   O1         1.0     0.341420      0.467150      0.887600     Biso  1.000000 O
   O1         1.0     0.658580      0.467150      0.887600     Biso  1.000000 O
   O1         1.0     0.341420      0.532850      0.112400     Biso  1.000000 O
   O1         1.0     0.341420      0.467150      0.112400     Biso  1.000000 O
   O1         1.0     0.658580      0.532850      0.887600     Biso  1.000000 O
   O1         1.0     0.341420      0.532850      0.887600     Biso  1.000000 O
   O1         1.0     0.658580      0.467150      0.112400     Biso  1.000000 O
   O1         1.0     0.612400      0.658580      0.032850     Biso  1.000000 O
   O1         1.0     0.387600      0.341420      0.967150     Biso  1.000000 O
   O1         1.0     0.387600      0.658580      0.967150     Biso  1.000000 O
   O1         1.0     0.612400      0.341420      0.032850     Biso  1.000000 O
   O1         1.0     0.612400      0.341420      0.967150     Biso  1.000000 O
   O1         1.0     0.387600      0.658580      0.032850     Biso  1.000000 O
   O1         1.0     0.387600      0.341420      0.032850     Biso  1.000000 O
   O1         1.0     0.612400      0.658580      0.967150     Biso  1.000000 O
   O1         1.0     0.612400      0.532850      0.841420     Biso  1.000000 O
   O1         1.0     0.387600      0.467150      0.158580     Biso  1.000000 O
   O1         1.0     0.387600      0.467150      0.841420     Biso  1.000000 O
   O1         1.0     0.612400      0.532850      0.158580     Biso  1.000000 O
   O1         1.0     0.612400      0.467150      0.158580     Biso  1.000000 O
   O1         1.0     0.387600      0.532850      0.841420     Biso  1.000000 O
   O1         1.0     0.387600      0.532850      0.158580     Biso  1.000000 O
   O1         1.0     0.612400      0.467150      0.841420     Biso  1.000000 O
   O1         1.0     0.532850      0.658580      0.887600     Biso  1.000000 O
   O1         1.0     0.467150      0.341420      0.112400     Biso  1.000000 O
   O1         1.0     0.467150      0.658580      0.112400     Biso  1.000000 O
   O1         1.0     0.532850      0.341420      0.887600     Biso  1.000000 O
   O1         1.0     0.467150      0.341420      0.887600     Biso  1.000000 O
   O1         1.0     0.532850      0.658580      0.112400     Biso  1.000000 O
   O1         1.0     0.532850      0.341420      0.112400     Biso  1.000000 O
   O1         1.0     0.467150      0.658580      0.887600     Biso  1.000000 O
   O1         1.0     0.658580      0.612400      0.967150     Biso  1.000000 O
   O1         1.0     0.341420      0.387600      0.032850     Biso  1.000000 O
   O1         1.0     0.658580      0.387600      0.032850     Biso  1.000000 O
   O1         1.0     0.341420      0.612400      0.967150     Biso  1.000000 O
   O1         1.0     0.341420      0.612400      0.032850     Biso  1.000000 O
   O1         1.0     0.658580      0.387600      0.967150     Biso  1.000000 O
   O1         1.0     0.341420      0.387600      0.967150     Biso  1.000000 O
   O1         1.0     0.658580      0.612400      0.032850     Biso  1.000000 O
   O2         1.0     0.032610      0.148550      0.195130     Biso  1.000000 O
   O2         1.0     0.967390      0.851450      0.804870     Biso  1.000000 O
   O2         1.0     0.967390      0.851450      0.195130     Biso  1.000000 O
   O2         1.0     0.032610      0.148550      0.804870     Biso  1.000000 O
   O2         1.0     0.967390      0.148550      0.804870     Biso  1.000000 O
   O2         1.0     0.032610      0.851450      0.195130     Biso  1.000000 O
   O2         1.0     0.032610      0.851450      0.804870     Biso  1.000000 O
   O2         1.0     0.967390      0.148550      0.195130     Biso  1.000000 O
   O2         1.0     0.195130      0.032610      0.148550     Biso  1.000000 O
   O2         1.0     0.804870      0.967390      0.851450     Biso  1.000000 O
   O2         1.0     0.195130      0.967390      0.851450     Biso  1.000000 O
   O2         1.0     0.804870      0.032610      0.148550     Biso  1.000000 O
   O2         1.0     0.804870      0.967390      0.148550     Biso  1.000000 O
   O2         1.0     0.195130      0.032610      0.851450     Biso  1.000000 O
   O2         1.0     0.804870      0.032610      0.851450     Biso  1.000000 O
   O2         1.0     0.195130      0.967390      0.148550     Biso  1.000000 O
   O2         1.0     0.148550      0.195130      0.032610     Biso  1.000000 O
   O2         1.0     0.851450      0.804870      0.967390     Biso  1.000000 O
   O2         1.0     0.851450      0.195130      0.967390     Biso  1.000000 O
   O2         1.0     0.148550      0.804870      0.032610     Biso  1.000000 O
   O2         1.0     0.148550      0.804870      0.967390     Biso  1.000000 O
   O2         1.0     0.851450      0.195130      0.032610     Biso  1.000000 O
   O2         1.0     0.851450      0.804870      0.032610     Biso  1.000000 O
   O2         1.0     0.148550      0.195130      0.967390     Biso  1.000000 O
   O2         1.0     0.148550      0.032610      0.804870     Biso  1.000000 O
   O2         1.0     0.851450      0.967390      0.195130     Biso  1.000000 O
   O2         1.0     0.851450      0.967390      0.804870     Biso  1.000000 O
   O2         1.0     0.148550      0.032610      0.195130     Biso  1.000000 O
   O2         1.0     0.148550      0.967390      0.195130     Biso  1.000000 O
   O2         1.0     0.851450      0.032610      0.804870     Biso  1.000000 O
   O2         1.0     0.851450      0.032610      0.195130     Biso  1.000000 O
   O2         1.0     0.148550      0.967390      0.804870     Biso  1.000000 O
   O2         1.0     0.032610      0.195130      0.851450     Biso  1.000000 O
   O2         1.0     0.967390      0.804870      0.148550     Biso  1.000000 O
   O2         1.0     0.967390      0.195130      0.148550     Biso  1.000000 O
   O2         1.0     0.032610      0.804870      0.851450     Biso  1.000000 O
   O2         1.0     0.967390      0.804870      0.851450     Biso  1.000000 O
   O2         1.0     0.032610      0.195130      0.148550     Biso  1.000000 O
   O2         1.0     0.032610      0.804870      0.148550     Biso  1.000000 O
   O2         1.0     0.967390      0.195130      0.851450     Biso  1.000000 O
   O2         1.0     0.195130      0.148550      0.967390     Biso  1.000000 O
   O2         1.0     0.804870      0.851450      0.032610     Biso  1.000000 O
   O2         1.0     0.195130      0.851450      0.032610     Biso  1.000000 O
   O2         1.0     0.804870      0.148550      0.967390     Biso  1.000000 O
   O2         1.0     0.804870      0.148550      0.032610     Biso  1.000000 O
   O2         1.0     0.195130      0.851450      0.967390     Biso  1.000000 O
   O2         1.0     0.804870      0.851450      0.967390     Biso  1.000000 O
   O2         1.0     0.195130      0.148550      0.032610     Biso  1.000000 O
   O2         1.0     0.032610      0.648550      0.695130     Biso  1.000000 O
   O2         1.0     0.967390      0.351450      0.304870     Biso  1.000000 O
   O2         1.0     0.967390      0.351450      0.695130     Biso  1.000000 O
   O2         1.0     0.032610      0.648550      0.304870     Biso  1.000000 O
   O2         1.0     0.967390      0.648550      0.304870     Biso  1.000000 O
   O2         1.0     0.032610      0.351450      0.695130     Biso  1.000000 O
   O2         1.0     0.032610      0.351450      0.304870     Biso  1.000000 O
   O2         1.0     0.967390      0.648550      0.695130     Biso  1.000000 O
   O2         1.0     0.195130      0.532610      0.648550     Biso  1.000000 O
   O2         1.0     0.804870      0.467390      0.351450     Biso  1.000000 O
   O2         1.0     0.195130      0.467390      0.351450     Biso  1.000000 O
   O2         1.0     0.804870      0.532610      0.648550     Biso  1.000000 O
   O2         1.0     0.804870      0.467390      0.648550     Biso  1.000000 O
   O2         1.0     0.195130      0.532610      0.351450     Biso  1.000000 O
   O2         1.0     0.804870      0.532610      0.351450     Biso  1.000000 O
   O2         1.0     0.195130      0.467390      0.648550     Biso  1.000000 O
   O2         1.0     0.148550      0.695130      0.532610     Biso  1.000000 O
   O2         1.0     0.851450      0.304870      0.467390     Biso  1.000000 O
   O2         1.0     0.851450      0.695130      0.467390     Biso  1.000000 O
   O2         1.0     0.148550      0.304870      0.532610     Biso  1.000000 O
   O2         1.0     0.148550      0.304870      0.467390     Biso  1.000000 O
   O2         1.0     0.851450      0.695130      0.532610     Biso  1.000000 O
   O2         1.0     0.851450      0.304870      0.532610     Biso  1.000000 O
   O2         1.0     0.148550      0.695130      0.467390     Biso  1.000000 O
   O2         1.0     0.148550      0.532610      0.304870     Biso  1.000000 O
   O2         1.0     0.851450      0.467390      0.695130     Biso  1.000000 O
   O2         1.0     0.851450      0.467390      0.304870     Biso  1.000000 O
   O2         1.0     0.148550      0.532610      0.695130     Biso  1.000000 O
   O2         1.0     0.148550      0.467390      0.695130     Biso  1.000000 O
   O2         1.0     0.851450      0.532610      0.304870     Biso  1.000000 O
   O2         1.0     0.851450      0.532610      0.695130     Biso  1.000000 O
   O2         1.0     0.148550      0.467390      0.304870     Biso  1.000000 O
   O2         1.0     0.032610      0.695130      0.351450     Biso  1.000000 O
   O2         1.0     0.967390      0.304870      0.648550     Biso  1.000000 O
   O2         1.0     0.967390      0.695130      0.648550     Biso  1.000000 O
   O2         1.0     0.032610      0.304870      0.351450     Biso  1.000000 O
   O2         1.0     0.967390      0.304870      0.351450     Biso  1.000000 O
   O2         1.0     0.032610      0.695130      0.648550     Biso  1.000000 O
   O2         1.0     0.032610      0.304870      0.648550     Biso  1.000000 O
   O2         1.0     0.967390      0.695130      0.351450     Biso  1.000000 O
   O2         1.0     0.195130      0.648550      0.467390     Biso  1.000000 O
   O2         1.0     0.804870      0.351450      0.532610     Biso  1.000000 O
   O2         1.0     0.195130      0.351450      0.532610     Biso  1.000000 O
   O2         1.0     0.804870      0.648550      0.467390     Biso  1.000000 O
   O2         1.0     0.804870      0.648550      0.532610     Biso  1.000000 O
   O2         1.0     0.195130      0.351450      0.467390     Biso  1.000000 O
   O2         1.0     0.804870      0.351450      0.467390     Biso  1.000000 O
   O2         1.0     0.195130      0.648550      0.532610     Biso  1.000000 O
   O2         1.0     0.532610      0.148550      0.695130     Biso  1.000000 O
   O2         1.0     0.467390      0.851450      0.304870     Biso  1.000000 O
   O2         1.0     0.467390      0.851450      0.695130     Biso  1.000000 O
   O2         1.0     0.532610      0.148550      0.304870     Biso  1.000000 O
   O2         1.0     0.467390      0.148550      0.304870     Biso  1.000000 O
   O2         1.0     0.532610      0.851450      0.695130     Biso  1.000000 O
   O2         1.0     0.532610      0.851450      0.304870     Biso  1.000000 O
   O2         1.0     0.467390      0.148550      0.695130     Biso  1.000000 O
   O2         1.0     0.695130      0.032610      0.648550     Biso  1.000000 O
   O2         1.0     0.304870      0.967390      0.351450     Biso  1.000000 O
   O2         1.0     0.695130      0.967390      0.351450     Biso  1.000000 O
   O2         1.0     0.304870      0.032610      0.648550     Biso  1.000000 O
   O2         1.0     0.304870      0.967390      0.648550     Biso  1.000000 O
   O2         1.0     0.695130      0.032610      0.351450     Biso  1.000000 O
   O2         1.0     0.304870      0.032610      0.351450     Biso  1.000000 O
   O2         1.0     0.695130      0.967390      0.648550     Biso  1.000000 O
   O2         1.0     0.648550      0.195130      0.532610     Biso  1.000000 O
   O2         1.0     0.351450      0.804870      0.467390     Biso  1.000000 O
   O2         1.0     0.351450      0.195130      0.467390     Biso  1.000000 O
   O2         1.0     0.648550      0.804870      0.532610     Biso  1.000000 O
   O2         1.0     0.648550      0.804870      0.467390     Biso  1.000000 O
   O2         1.0     0.351450      0.195130      0.532610     Biso  1.000000 O
   O2         1.0     0.351450      0.804870      0.532610     Biso  1.000000 O
   O2         1.0     0.648550      0.195130      0.467390     Biso  1.000000 O
   O2         1.0     0.648550      0.032610      0.304870     Biso  1.000000 O
   O2         1.0     0.351450      0.967390      0.695130     Biso  1.000000 O
   O2         1.0     0.351450      0.967390      0.304870     Biso  1.000000 O
   O2         1.0     0.648550      0.032610      0.695130     Biso  1.000000 O
   O2         1.0     0.648550      0.967390      0.695130     Biso  1.000000 O
   O2         1.0     0.351450      0.032610      0.304870     Biso  1.000000 O
   O2         1.0     0.351450      0.032610      0.695130     Biso  1.000000 O
   O2         1.0     0.648550      0.967390      0.304870     Biso  1.000000 O
   O2         1.0     0.532610      0.195130      0.351450     Biso  1.000000 O
   O2         1.0     0.467390      0.804870      0.648550     Biso  1.000000 O
   O2         1.0     0.467390      0.195130      0.648550     Biso  1.000000 O
   O2         1.0     0.532610      0.804870      0.351450     Biso  1.000000 O
   O2         1.0     0.467390      0.804870      0.351450     Biso  1.000000 O
   O2         1.0     0.532610      0.195130      0.648550     Biso  1.000000 O
   O2         1.0     0.532610      0.804870      0.648550     Biso  1.000000 O
   O2         1.0     0.467390      0.195130      0.351450     Biso  1.000000 O
   O2         1.0     0.695130      0.148550      0.467390     Biso  1.000000 O
   O2         1.0     0.304870      0.851450      0.532610     Biso  1.000000 O
   O2         1.0     0.695130      0.851450      0.532610     Biso  1.000000 O
   O2         1.0     0.304870      0.148550      0.467390     Biso  1.000000 O
   O2         1.0     0.304870      0.148550      0.532610     Biso  1.000000 O
   O2         1.0     0.695130      0.851450      0.467390     Biso  1.000000 O
   O2         1.0     0.304870      0.851450      0.467390     Biso  1.000000 O
   O2         1.0     0.695130      0.148550      0.532610     Biso  1.000000 O
   O2         1.0     0.532610      0.648550      0.195130     Biso  1.000000 O
   O2         1.0     0.467390      0.351450      0.804870     Biso  1.000000 O
   O2         1.0     0.467390      0.351450      0.195130     Biso  1.000000 O
   O2         1.0     0.532610      0.648550      0.804870     Biso  1.000000 O
   O2         1.0     0.467390      0.648550      0.804870     Biso  1.000000 O
   O2         1.0     0.532610      0.351450      0.195130     Biso  1.000000 O
   O2         1.0     0.532610      0.351450      0.804870     Biso  1.000000 O
   O2         1.0     0.467390      0.648550      0.195130     Biso  1.000000 O
   O2         1.0     0.695130      0.532610      0.148550     Biso  1.000000 O
   O2         1.0     0.304870      0.467390      0.851450     Biso  1.000000 O
   O2         1.0     0.695130      0.467390      0.851450     Biso  1.000000 O
   O2         1.0     0.304870      0.532610      0.148550     Biso  1.000000 O
   O2         1.0     0.304870      0.467390      0.148550     Biso  1.000000 O
   O2         1.0     0.695130      0.532610      0.851450     Biso  1.000000 O
   O2         1.0     0.304870      0.532610      0.851450     Biso  1.000000 O
   O2         1.0     0.695130      0.467390      0.148550     Biso  1.000000 O
   O2         1.0     0.648550      0.695130      0.032610     Biso  1.000000 O
   O2         1.0     0.351450      0.304870      0.967390     Biso  1.000000 O
   O2         1.0     0.351450      0.695130      0.967390     Biso  1.000000 O
   O2         1.0     0.648550      0.304870      0.032610     Biso  1.000000 O
   O2         1.0     0.648550      0.304870      0.967390     Biso  1.000000 O
   O2         1.0     0.351450      0.695130      0.032610     Biso  1.000000 O
   O2         1.0     0.351450      0.304870      0.032610     Biso  1.000000 O
   O2         1.0     0.648550      0.695130      0.967390     Biso  1.000000 O
   O2         1.0     0.648550      0.532610      0.804870     Biso  1.000000 O
   O2         1.0     0.351450      0.467390      0.195130     Biso  1.000000 O
   O2         1.0     0.351450      0.467390      0.804870     Biso  1.000000 O
   O2         1.0     0.648550      0.532610      0.195130     Biso  1.000000 O
   O2         1.0     0.648550      0.467390      0.195130     Biso  1.000000 O
   O2         1.0     0.351450      0.532610      0.804870     Biso  1.000000 O
   O2         1.0     0.351450      0.532610      0.195130     Biso  1.000000 O
   O2         1.0     0.648550      0.467390      0.804870     Biso  1.000000 O
   O2         1.0     0.532610      0.695130      0.851450     Biso  1.000000 O
   O2         1.0     0.467390      0.304870      0.148550     Biso  1.000000 O
   O2         1.0     0.467390      0.695130      0.148550     Biso  1.000000 O
   O2         1.0     0.532610      0.304870      0.851450     Biso  1.000000 O
   O2         1.0     0.467390      0.304870      0.851450     Biso  1.000000 O
   O2         1.0     0.532610      0.695130      0.148550     Biso  1.000000 O
   O2         1.0     0.532610      0.304870      0.148550     Biso  1.000000 O
   O2         1.0     0.467390      0.695130      0.851450     Biso  1.000000 O
   O2         1.0     0.695130      0.648550      0.967390     Biso  1.000000 O
   O2         1.0     0.304870      0.351450      0.032610     Biso  1.000000 O
   O2         1.0     0.695130      0.351450      0.032610     Biso  1.000000 O
   O2         1.0     0.304870      0.648550      0.967390     Biso  1.000000 O
   O2         1.0     0.304870      0.648550      0.032610     Biso  1.000000 O
   O2         1.0     0.695130      0.351450      0.967390     Biso  1.000000 O
   O2         1.0     0.304870      0.351450      0.967390     Biso  1.000000 O
   O2         1.0     0.695130      0.648550      0.032610     Biso  1.000000 O
   C1         1.0     0.043030      0.123950      0.183350     Biso  1.000000 C
   C1         1.0     0.956970      0.876050      0.816650     Biso  1.000000 C
   C1         1.0     0.956970      0.876050      0.183350     Biso  1.000000 C
   C1         1.0     0.043030      0.123950      0.816650     Biso  1.000000 C
   C1         1.0     0.956970      0.123950      0.816650     Biso  1.000000 C
   C1         1.0     0.043030      0.876050      0.183350     Biso  1.000000 C
   C1         1.0     0.043030      0.876050      0.816650     Biso  1.000000 C
   C1         1.0     0.956970      0.123950      0.183350     Biso  1.000000 C
   C1         1.0     0.183350      0.043030      0.123950     Biso  1.000000 C
   C1         1.0     0.816650      0.956970      0.876050     Biso  1.000000 C
   C1         1.0     0.183350      0.956970      0.876050     Biso  1.000000 C
   C1         1.0     0.816650      0.043030      0.123950     Biso  1.000000 C
   C1         1.0     0.816650      0.956970      0.123950     Biso  1.000000 C
   C1         1.0     0.183350      0.043030      0.876050     Biso  1.000000 C
   C1         1.0     0.816650      0.043030      0.876050     Biso  1.000000 C
   C1         1.0     0.183350      0.956970      0.123950     Biso  1.000000 C
   C1         1.0     0.123950      0.183350      0.043030     Biso  1.000000 C
   C1         1.0     0.876050      0.816650      0.956970     Biso  1.000000 C
   C1         1.0     0.876050      0.183350      0.956970     Biso  1.000000 C
   C1         1.0     0.123950      0.816650      0.043030     Biso  1.000000 C
   C1         1.0     0.123950      0.816650      0.956970     Biso  1.000000 C
   C1         1.0     0.876050      0.183350      0.043030     Biso  1.000000 C
   C1         1.0     0.876050      0.816650      0.043030     Biso  1.000000 C
   C1         1.0     0.123950      0.183350      0.956970     Biso  1.000000 C
   C1         1.0     0.123950      0.043030      0.816650     Biso  1.000000 C
   C1         1.0     0.876050      0.956970      0.183350     Biso  1.000000 C
   C1         1.0     0.876050      0.956970      0.816650     Biso  1.000000 C
   C1         1.0     0.123950      0.043030      0.183350     Biso  1.000000 C
   C1         1.0     0.123950      0.956970      0.183350     Biso  1.000000 C
   C1         1.0     0.876050      0.043030      0.816650     Biso  1.000000 C
   C1         1.0     0.876050      0.043030      0.183350     Biso  1.000000 C
   C1         1.0     0.123950      0.956970      0.816650     Biso  1.000000 C
   C1         1.0     0.043030      0.183350      0.876050     Biso  1.000000 C
   C1         1.0     0.956970      0.816650      0.123950     Biso  1.000000 C
   C1         1.0     0.956970      0.183350      0.123950     Biso  1.000000 C
   C1         1.0     0.043030      0.816650      0.876050     Biso  1.000000 C
   C1         1.0     0.956970      0.816650      0.876050     Biso  1.000000 C
   C1         1.0     0.043030      0.183350      0.123950     Biso  1.000000 C
   C1         1.0     0.043030      0.816650      0.123950     Biso  1.000000 C
   C1         1.0     0.956970      0.183350      0.876050     Biso  1.000000 C
   C1         1.0     0.183350      0.123950      0.956970     Biso  1.000000 C
   C1         1.0     0.816650      0.876050      0.043030     Biso  1.000000 C
   C1         1.0     0.183350      0.876050      0.043030     Biso  1.000000 C
   C1         1.0     0.816650      0.123950      0.956970     Biso  1.000000 C
   C1         1.0     0.816650      0.123950      0.043030     Biso  1.000000 C
   C1         1.0     0.183350      0.876050      0.956970     Biso  1.000000 C
   C1         1.0     0.816650      0.876050      0.956970     Biso  1.000000 C
   C1         1.0     0.183350      0.123950      0.043030     Biso  1.000000 C
   C1         1.0     0.043030      0.623950      0.683350     Biso  1.000000 C
   C1         1.0     0.956970      0.376050      0.316650     Biso  1.000000 C
   C1         1.0     0.956970      0.376050      0.683350     Biso  1.000000 C
   C1         1.0     0.043030      0.623950      0.316650     Biso  1.000000 C
   C1         1.0     0.956970      0.623950      0.316650     Biso  1.000000 C
   C1         1.0     0.043030      0.376050      0.683350     Biso  1.000000 C
   C1         1.0     0.043030      0.376050      0.316650     Biso  1.000000 C
   C1         1.0     0.956970      0.623950      0.683350     Biso  1.000000 C
   C1         1.0     0.183350      0.543030      0.623950     Biso  1.000000 C
   C1         1.0     0.816650      0.456970      0.376050     Biso  1.000000 C
   C1         1.0     0.183350      0.456970      0.376050     Biso  1.000000 C
   C1         1.0     0.816650      0.543030      0.623950     Biso  1.000000 C
   C1         1.0     0.816650      0.456970      0.623950     Biso  1.000000 C
   C1         1.0     0.183350      0.543030      0.376050     Biso  1.000000 C
   C1         1.0     0.816650      0.543030      0.376050     Biso  1.000000 C
   C1         1.0     0.183350      0.456970      0.623950     Biso  1.000000 C
   C1         1.0     0.123950      0.683350      0.543030     Biso  1.000000 C
   C1         1.0     0.876050      0.316650      0.456970     Biso  1.000000 C
   C1         1.0     0.876050      0.683350      0.456970     Biso  1.000000 C
   C1         1.0     0.123950      0.316650      0.543030     Biso  1.000000 C
   C1         1.0     0.123950      0.316650      0.456970     Biso  1.000000 C
   C1         1.0     0.876050      0.683350      0.543030     Biso  1.000000 C
   C1         1.0     0.876050      0.316650      0.543030     Biso  1.000000 C
   C1         1.0     0.123950      0.683350      0.456970     Biso  1.000000 C
   C1         1.0     0.123950      0.543030      0.316650     Biso  1.000000 C
   C1         1.0     0.876050      0.456970      0.683350     Biso  1.000000 C
   C1         1.0     0.876050      0.456970      0.316650     Biso  1.000000 C
   C1         1.0     0.123950      0.543030      0.683350     Biso  1.000000 C
   C1         1.0     0.123950      0.456970      0.683350     Biso  1.000000 C
   C1         1.0     0.876050      0.543030      0.316650     Biso  1.000000 C
   C1         1.0     0.876050      0.543030      0.683350     Biso  1.000000 C
   C1         1.0     0.123950      0.456970      0.316650     Biso  1.000000 C
   C1         1.0     0.043030      0.683350      0.376050     Biso  1.000000 C
   C1         1.0     0.956970      0.316650      0.623950     Biso  1.000000 C
   C1         1.0     0.956970      0.683350      0.623950     Biso  1.000000 C
   C1         1.0     0.043030      0.316650      0.376050     Biso  1.000000 C
   C1         1.0     0.956970      0.316650      0.376050     Biso  1.000000 C
   C1         1.0     0.043030      0.683350      0.623950     Biso  1.000000 C
   C1         1.0     0.043030      0.316650      0.623950     Biso  1.000000 C
   C1         1.0     0.956970      0.683350      0.376050     Biso  1.000000 C
   C1         1.0     0.183350      0.623950      0.456970     Biso  1.000000 C
   C1         1.0     0.816650      0.376050      0.543030     Biso  1.000000 C
   C1         1.0     0.183350      0.376050      0.543030     Biso  1.000000 C
   C1         1.0     0.816650      0.623950      0.456970     Biso  1.000000 C
   C1         1.0     0.816650      0.623950      0.543030     Biso  1.000000 C
   C1         1.0     0.183350      0.376050      0.456970     Biso  1.000000 C
   C1         1.0     0.816650      0.376050      0.456970     Biso  1.000000 C
   C1         1.0     0.183350      0.623950      0.543030     Biso  1.000000 C
   C1         1.0     0.543030      0.123950      0.683350     Biso  1.000000 C
   C1         1.0     0.456970      0.876050      0.316650     Biso  1.000000 C
   C1         1.0     0.456970      0.876050      0.683350     Biso  1.000000 C
   C1         1.0     0.543030      0.123950      0.316650     Biso  1.000000 C
   C1         1.0     0.456970      0.123950      0.316650     Biso  1.000000 C
   C1         1.0     0.543030      0.876050      0.683350     Biso  1.000000 C
   C1         1.0     0.543030      0.876050      0.316650     Biso  1.000000 C
   C1         1.0     0.456970      0.123950      0.683350     Biso  1.000000 C
   C1         1.0     0.683350      0.043030      0.623950     Biso  1.000000 C
   C1         1.0     0.316650      0.956970      0.376050     Biso  1.000000 C
   C1         1.0     0.683350      0.956970      0.376050     Biso  1.000000 C
   C1         1.0     0.316650      0.043030      0.623950     Biso  1.000000 C
   C1         1.0     0.316650      0.956970      0.623950     Biso  1.000000 C
   C1         1.0     0.683350      0.043030      0.376050     Biso  1.000000 C
   C1         1.0     0.316650      0.043030      0.376050     Biso  1.000000 C
   C1         1.0     0.683350      0.956970      0.623950     Biso  1.000000 C
   C1         1.0     0.623950      0.183350      0.543030     Biso  1.000000 C
   C1         1.0     0.376050      0.816650      0.456970     Biso  1.000000 C
   C1         1.0     0.376050      0.183350      0.456970     Biso  1.000000 C
   C1         1.0     0.623950      0.816650      0.543030     Biso  1.000000 C
   C1         1.0     0.623950      0.816650      0.456970     Biso  1.000000 C
   C1         1.0     0.376050      0.183350      0.543030     Biso  1.000000 C
   C1         1.0     0.376050      0.816650      0.543030     Biso  1.000000 C
   C1         1.0     0.623950      0.183350      0.456970     Biso  1.000000 C
   C1         1.0     0.623950      0.043030      0.316650     Biso  1.000000 C
   C1         1.0     0.376050      0.956970      0.683350     Biso  1.000000 C
   C1         1.0     0.376050      0.956970      0.316650     Biso  1.000000 C
   C1         1.0     0.623950      0.043030      0.683350     Biso  1.000000 C
   C1         1.0     0.623950      0.956970      0.683350     Biso  1.000000 C
   C1         1.0     0.376050      0.043030      0.316650     Biso  1.000000 C
   C1         1.0     0.376050      0.043030      0.683350     Biso  1.000000 C
   C1         1.0     0.623950      0.956970      0.316650     Biso  1.000000 C
   C1         1.0     0.543030      0.183350      0.376050     Biso  1.000000 C
   C1         1.0     0.456970      0.816650      0.623950     Biso  1.000000 C
   C1         1.0     0.456970      0.183350      0.623950     Biso  1.000000 C
   C1         1.0     0.543030      0.816650      0.376050     Biso  1.000000 C
   C1         1.0     0.456970      0.816650      0.376050     Biso  1.000000 C
   C1         1.0     0.543030      0.183350      0.623950     Biso  1.000000 C
   C1         1.0     0.543030      0.816650      0.623950     Biso  1.000000 C
   C1         1.0     0.456970      0.183350      0.376050     Biso  1.000000 C
   C1         1.0     0.683350      0.123950      0.456970     Biso  1.000000 C
   C1         1.0     0.316650      0.876050      0.543030     Biso  1.000000 C
   C1         1.0     0.683350      0.876050      0.543030     Biso  1.000000 C
   C1         1.0     0.316650      0.123950      0.456970     Biso  1.000000 C
   C1         1.0     0.316650      0.123950      0.543030     Biso  1.000000 C
   C1         1.0     0.683350      0.876050      0.456970     Biso  1.000000 C
   C1         1.0     0.316650      0.876050      0.456970     Biso  1.000000 C
   C1         1.0     0.683350      0.123950      0.543030     Biso  1.000000 C
   C1         1.0     0.543030      0.623950      0.183350     Biso  1.000000 C
   C1         1.0     0.456970      0.376050      0.816650     Biso  1.000000 C
   C1         1.0     0.456970      0.376050      0.183350     Biso  1.000000 C
   C1         1.0     0.543030      0.623950      0.816650     Biso  1.000000 C
   C1         1.0     0.456970      0.623950      0.816650     Biso  1.000000 C
   C1         1.0     0.543030      0.376050      0.183350     Biso  1.000000 C
   C1         1.0     0.543030      0.376050      0.816650     Biso  1.000000 C
   C1         1.0     0.456970      0.623950      0.183350     Biso  1.000000 C
   C1         1.0     0.683350      0.543030      0.123950     Biso  1.000000 C
   C1         1.0     0.316650      0.456970      0.876050     Biso  1.000000 C
   C1         1.0     0.683350      0.456970      0.876050     Biso  1.000000 C
   C1         1.0     0.316650      0.543030      0.123950     Biso  1.000000 C
   C1         1.0     0.316650      0.456970      0.123950     Biso  1.000000 C
   C1         1.0     0.683350      0.543030      0.876050     Biso  1.000000 C
   C1         1.0     0.316650      0.543030      0.876050     Biso  1.000000 C
   C1         1.0     0.683350      0.456970      0.123950     Biso  1.000000 C
   C1         1.0     0.623950      0.683350      0.043030     Biso  1.000000 C
   C1         1.0     0.376050      0.316650      0.956970     Biso  1.000000 C
   C1         1.0     0.376050      0.683350      0.956970     Biso  1.000000 C
   C1         1.0     0.623950      0.316650      0.043030     Biso  1.000000 C
   C1         1.0     0.623950      0.316650      0.956970     Biso  1.000000 C
   C1         1.0     0.376050      0.683350      0.043030     Biso  1.000000 C
   C1         1.0     0.376050      0.316650      0.043030     Biso  1.000000 C
   C1         1.0     0.623950      0.683350      0.956970     Biso  1.000000 C
   C1         1.0     0.623950      0.543030      0.816650     Biso  1.000000 C
   C1         1.0     0.376050      0.456970      0.183350     Biso  1.000000 C
   C1         1.0     0.376050      0.456970      0.816650     Biso  1.000000 C
   C1         1.0     0.623950      0.543030      0.183350     Biso  1.000000 C
   C1         1.0     0.623950      0.456970      0.183350     Biso  1.000000 C
   C1         1.0     0.376050      0.543030      0.816650     Biso  1.000000 C
   C1         1.0     0.376050      0.543030      0.183350     Biso  1.000000 C
   C1         1.0     0.623950      0.456970      0.816650     Biso  1.000000 C
   C1         1.0     0.543030      0.683350      0.876050     Biso  1.000000 C
   C1         1.0     0.456970      0.316650      0.123950     Biso  1.000000 C
   C1         1.0     0.456970      0.683350      0.123950     Biso  1.000000 C
   C1         1.0     0.543030      0.316650      0.876050     Biso  1.000000 C
   C1         1.0     0.456970      0.316650      0.876050     Biso  1.000000 C
   C1         1.0     0.543030      0.683350      0.123950     Biso  1.000000 C
   C1         1.0     0.543030      0.316650      0.123950     Biso  1.000000 C
   C1         1.0     0.456970      0.683350      0.876050     Biso  1.000000 C
   C1         1.0     0.683350      0.623950      0.956970     Biso  1.000000 C
   C1         1.0     0.316650      0.376050      0.043030     Biso  1.000000 C
   C1         1.0     0.683350      0.376050      0.043030     Biso  1.000000 C
   C1         1.0     0.316650      0.623950      0.956970     Biso  1.000000 C
   C1         1.0     0.316650      0.623950      0.043030     Biso  1.000000 C
   C1         1.0     0.683350      0.376050      0.956970     Biso  1.000000 C
   C1         1.0     0.316650      0.376050      0.956970     Biso  1.000000 C
   C1         1.0     0.683350      0.623950      0.043030     Biso  1.000000 C
   C2         1.0     0.082030      0.082030      0.184540     Biso  1.000000 C
   C2         1.0     0.917970      0.917970      0.815460     Biso  1.000000 C
   C2         1.0     0.917970      0.917970      0.184540     Biso  1.000000 C
   C2         1.0     0.082030      0.082030      0.815460     Biso  1.000000 C
   C2         1.0     0.917970      0.082030      0.815460     Biso  1.000000 C
   C2         1.0     0.082030      0.917970      0.184540     Biso  1.000000 C
   C2         1.0     0.082030      0.917970      0.815460     Biso  1.000000 C
   C2         1.0     0.917970      0.082030      0.184540     Biso  1.000000 C
   C2         1.0     0.184540      0.082030      0.082030     Biso  1.000000 C
   C2         1.0     0.815460      0.917970      0.917970     Biso  1.000000 C
   C2         1.0     0.184540      0.917970      0.917970     Biso  1.000000 C
   C2         1.0     0.815460      0.082030      0.082030     Biso  1.000000 C
   C2         1.0     0.815460      0.917970      0.082030     Biso  1.000000 C
   C2         1.0     0.184540      0.082030      0.917970     Biso  1.000000 C
   C2         1.0     0.815460      0.082030      0.917970     Biso  1.000000 C
   C2         1.0     0.184540      0.917970      0.082030     Biso  1.000000 C
   C2         1.0     0.082030      0.184540      0.082030     Biso  1.000000 C
   C2         1.0     0.917970      0.815460      0.917970     Biso  1.000000 C
   C2         1.0     0.917970      0.184540      0.917970     Biso  1.000000 C
   C2         1.0     0.082030      0.815460      0.082030     Biso  1.000000 C
   C2         1.0     0.082030      0.815460      0.917970     Biso  1.000000 C
   C2         1.0     0.917970      0.184540      0.082030     Biso  1.000000 C
   C2         1.0     0.917970      0.815460      0.082030     Biso  1.000000 C
   C2         1.0     0.082030      0.184540      0.917970     Biso  1.000000 C
   C2         1.0     0.082030      0.582030      0.684540     Biso  1.000000 C
   C2         1.0     0.917970      0.417970      0.315460     Biso  1.000000 C
   C2         1.0     0.917970      0.417970      0.684540     Biso  1.000000 C
   C2         1.0     0.082030      0.582030      0.315460     Biso  1.000000 C
   C2         1.0     0.917970      0.582030      0.315460     Biso  1.000000 C
   C2         1.0     0.082030      0.417970      0.684540     Biso  1.000000 C
   C2         1.0     0.082030      0.417970      0.315460     Biso  1.000000 C
   C2         1.0     0.917970      0.582030      0.684540     Biso  1.000000 C
   C2         1.0     0.184540      0.582030      0.582030     Biso  1.000000 C
   C2         1.0     0.815460      0.417970      0.417970     Biso  1.000000 C
   C2         1.0     0.184540      0.417970      0.417970     Biso  1.000000 C
   C2         1.0     0.815460      0.582030      0.582030     Biso  1.000000 C
   C2         1.0     0.815460      0.417970      0.582030     Biso  1.000000 C
   C2         1.0     0.184540      0.582030      0.417970     Biso  1.000000 C
   C2         1.0     0.815460      0.582030      0.417970     Biso  1.000000 C
   C2         1.0     0.184540      0.417970      0.582030     Biso  1.000000 C
   C2         1.0     0.082030      0.684540      0.582030     Biso  1.000000 C
   C2         1.0     0.917970      0.315460      0.417970     Biso  1.000000 C
   C2         1.0     0.917970      0.684540      0.417970     Biso  1.000000 C
   C2         1.0     0.082030      0.315460      0.582030     Biso  1.000000 C
   C2         1.0     0.082030      0.315460      0.417970     Biso  1.000000 C
   C2         1.0     0.917970      0.684540      0.582030     Biso  1.000000 C
   C2         1.0     0.917970      0.315460      0.582030     Biso  1.000000 C
   C2         1.0     0.082030      0.684540      0.417970     Biso  1.000000 C
   C2         1.0     0.582030      0.082030      0.684540     Biso  1.000000 C
   C2         1.0     0.417970      0.917970      0.315460     Biso  1.000000 C
   C2         1.0     0.417970      0.917970      0.684540     Biso  1.000000 C
   C2         1.0     0.582030      0.082030      0.315460     Biso  1.000000 C
   C2         1.0     0.417970      0.082030      0.315460     Biso  1.000000 C
   C2         1.0     0.582030      0.917970      0.684540     Biso  1.000000 C
   C2         1.0     0.582030      0.917970      0.315460     Biso  1.000000 C
   C2         1.0     0.417970      0.082030      0.684540     Biso  1.000000 C
   C2         1.0     0.684540      0.082030      0.582030     Biso  1.000000 C
   C2         1.0     0.315460      0.917970      0.417970     Biso  1.000000 C
   C2         1.0     0.684540      0.917970      0.417970     Biso  1.000000 C
   C2         1.0     0.315460      0.082030      0.582030     Biso  1.000000 C
   C2         1.0     0.315460      0.917970      0.582030     Biso  1.000000 C
   C2         1.0     0.684540      0.082030      0.417970     Biso  1.000000 C
   C2         1.0     0.315460      0.082030      0.417970     Biso  1.000000 C
   C2         1.0     0.684540      0.917970      0.582030     Biso  1.000000 C
   C2         1.0     0.582030      0.184540      0.582030     Biso  1.000000 C
   C2         1.0     0.417970      0.815460      0.417970     Biso  1.000000 C
   C2         1.0     0.417970      0.184540      0.417970     Biso  1.000000 C
   C2         1.0     0.582030      0.815460      0.582030     Biso  1.000000 C
   C2         1.0     0.582030      0.815460      0.417970     Biso  1.000000 C
   C2         1.0     0.417970      0.184540      0.582030     Biso  1.000000 C
   C2         1.0     0.417970      0.815460      0.582030     Biso  1.000000 C
   C2         1.0     0.582030      0.184540      0.417970     Biso  1.000000 C
   C2         1.0     0.582030      0.582030      0.184540     Biso  1.000000 C
   C2         1.0     0.417970      0.417970      0.815460     Biso  1.000000 C
   C2         1.0     0.417970      0.417970      0.184540     Biso  1.000000 C
   C2         1.0     0.582030      0.582030      0.815460     Biso  1.000000 C
   C2         1.0     0.417970      0.582030      0.815460     Biso  1.000000 C
   C2         1.0     0.582030      0.417970      0.184540     Biso  1.000000 C
   C2         1.0     0.582030      0.417970      0.815460     Biso  1.000000 C
   C2         1.0     0.417970      0.582030      0.184540     Biso  1.000000 C
   C2         1.0     0.684540      0.582030      0.082030     Biso  1.000000 C
   C2         1.0     0.315460      0.417970      0.917970     Biso  1.000000 C
   C2         1.0     0.684540      0.417970      0.917970     Biso  1.000000 C
   C2         1.0     0.315460      0.582030      0.082030     Biso  1.000000 C
   C2         1.0     0.315460      0.417970      0.082030     Biso  1.000000 C
   C2         1.0     0.684540      0.582030      0.917970     Biso  1.000000 C
   C2         1.0     0.315460      0.582030      0.917970     Biso  1.000000 C
   C2         1.0     0.684540      0.417970      0.082030     Biso  1.000000 C
   C2         1.0     0.582030      0.684540      0.082030     Biso  1.000000 C
   C2         1.0     0.417970      0.315460      0.917970     Biso  1.000000 C
   C2         1.0     0.417970      0.684540      0.917970     Biso  1.000000 C
   C2         1.0     0.582030      0.315460      0.082030     Biso  1.000000 C
   C2         1.0     0.582030      0.315460      0.917970     Biso  1.000000 C
   C2         1.0     0.417970      0.684540      0.082030     Biso  1.000000 C
   C2         1.0     0.417970      0.315460      0.082030     Biso  1.000000 C
   C2         1.0     0.582030      0.684540      0.917970     Biso  1.000000 C
   H2         1.0     0.074000      0.074000      0.165500     Biso  1.000000 H
   H2         1.0     0.926000      0.926000      0.834500     Biso  1.000000 H
   H2         1.0     0.926000      0.926000      0.165500     Biso  1.000000 H
   H2         1.0     0.074000      0.074000      0.834500     Biso  1.000000 H
   H2         1.0     0.926000      0.074000      0.834500     Biso  1.000000 H
   H2         1.0     0.074000      0.926000      0.165500     Biso  1.000000 H
   H2         1.0     0.074000      0.926000      0.834500     Biso  1.000000 H
   H2         1.0     0.926000      0.074000      0.165500     Biso  1.000000 H
   H2         1.0     0.165500      0.074000      0.074000     Biso  1.000000 H
   H2         1.0     0.834500      0.926000      0.926000     Biso  1.000000 H
   H2         1.0     0.165500      0.926000      0.926000     Biso  1.000000 H
   H2         1.0     0.834500      0.074000      0.074000     Biso  1.000000 H
   H2         1.0     0.834500      0.926000      0.074000     Biso  1.000000 H
   H2         1.0     0.165500      0.074000      0.926000     Biso  1.000000 H
   H2         1.0     0.834500      0.074000      0.926000     Biso  1.000000 H
   H2         1.0     0.165500      0.926000      0.074000     Biso  1.000000 H
   H2         1.0     0.074000      0.165500      0.074000     Biso  1.000000 H
   H2         1.0     0.926000      0.834500      0.926000     Biso  1.000000 H
   H2         1.0     0.926000      0.165500      0.926000     Biso  1.000000 H
   H2         1.0     0.074000      0.834500      0.074000     Biso  1.000000 H
   H2         1.0     0.074000      0.834500      0.926000     Biso  1.000000 H
   H2         1.0     0.926000      0.165500      0.074000     Biso  1.000000 H
   H2         1.0     0.926000      0.834500      0.074000     Biso  1.000000 H
   H2         1.0     0.074000      0.165500      0.926000     Biso  1.000000 H
   H2         1.0     0.074000      0.574000      0.665500     Biso  1.000000 H
   H2         1.0     0.926000      0.426000      0.334500     Biso  1.000000 H
   H2         1.0     0.926000      0.426000      0.665500     Biso  1.000000 H
   H2         1.0     0.074000      0.574000      0.334500     Biso  1.000000 H
   H2         1.0     0.926000      0.574000      0.334500     Biso  1.000000 H
   H2         1.0     0.074000      0.426000      0.665500     Biso  1.000000 H
   H2         1.0     0.074000      0.426000      0.334500     Biso  1.000000 H
   H2         1.0     0.926000      0.574000      0.665500     Biso  1.000000 H
   H2         1.0     0.165500      0.574000      0.574000     Biso  1.000000 H
   H2         1.0     0.834500      0.426000      0.426000     Biso  1.000000 H
   H2         1.0     0.165500      0.426000      0.426000     Biso  1.000000 H
   H2         1.0     0.834500      0.574000      0.574000     Biso  1.000000 H
   H2         1.0     0.834500      0.426000      0.574000     Biso  1.000000 H
   H2         1.0     0.165500      0.574000      0.426000     Biso  1.000000 H
   H2         1.0     0.834500      0.574000      0.426000     Biso  1.000000 H
   H2         1.0     0.165500      0.426000      0.574000     Biso  1.000000 H
   H2         1.0     0.074000      0.665500      0.574000     Biso  1.000000 H
   H2         1.0     0.926000      0.334500      0.426000     Biso  1.000000 H
   H2         1.0     0.926000      0.665500      0.426000     Biso  1.000000 H
   H2         1.0     0.074000      0.334500      0.574000     Biso  1.000000 H
   H2         1.0     0.074000      0.334500      0.426000     Biso  1.000000 H
   H2         1.0     0.926000      0.665500      0.574000     Biso  1.000000 H
   H2         1.0     0.926000      0.334500      0.574000     Biso  1.000000 H
   H2         1.0     0.074000      0.665500      0.426000     Biso  1.000000 H
   H2         1.0     0.574000      0.074000      0.665500     Biso  1.000000 H
   H2         1.0     0.426000      0.926000      0.334500     Biso  1.000000 H
   H2         1.0     0.426000      0.926000      0.665500     Biso  1.000000 H
   H2         1.0     0.574000      0.074000      0.334500     Biso  1.000000 H
   H2         1.0     0.426000      0.074000      0.334500     Biso  1.000000 H
   H2         1.0     0.574000      0.926000      0.665500     Biso  1.000000 H
   H2         1.0     0.574000      0.926000      0.334500     Biso  1.000000 H
   H2         1.0     0.426000      0.074000      0.665500     Biso  1.000000 H
   H2         1.0     0.665500      0.074000      0.574000     Biso  1.000000 H
   H2         1.0     0.334500      0.926000      0.426000     Biso  1.000000 H
   H2         1.0     0.665500      0.926000      0.426000     Biso  1.000000 H
   H2         1.0     0.334500      0.074000      0.574000     Biso  1.000000 H
   H2         1.0     0.334500      0.926000      0.574000     Biso  1.000000 H
   H2         1.0     0.665500      0.074000      0.426000     Biso  1.000000 H
   H2         1.0     0.334500      0.074000      0.426000     Biso  1.000000 H
   H2         1.0     0.665500      0.926000      0.574000     Biso  1.000000 H
   H2         1.0     0.574000      0.165500      0.574000     Biso  1.000000 H
   H2         1.0     0.426000      0.834500      0.426000     Biso  1.000000 H
   H2         1.0     0.426000      0.165500      0.426000     Biso  1.000000 H
   H2         1.0     0.574000      0.834500      0.574000     Biso  1.000000 H
   H2         1.0     0.574000      0.834500      0.426000     Biso  1.000000 H
   H2         1.0     0.426000      0.165500      0.574000     Biso  1.000000 H
   H2         1.0     0.426000      0.834500      0.574000     Biso  1.000000 H
   H2         1.0     0.574000      0.165500      0.426000     Biso  1.000000 H
   H2         1.0     0.574000      0.574000      0.165500     Biso  1.000000 H
   H2         1.0     0.426000      0.426000      0.834500     Biso  1.000000 H
   H2         1.0     0.426000      0.426000      0.165500     Biso  1.000000 H
   H2         1.0     0.574000      0.574000      0.834500     Biso  1.000000 H
   H2         1.0     0.426000      0.574000      0.834500     Biso  1.000000 H
   H2         1.0     0.574000      0.426000      0.165500     Biso  1.000000 H
   H2         1.0     0.574000      0.426000      0.834500     Biso  1.000000 H
   H2         1.0     0.426000      0.574000      0.165500     Biso  1.000000 H
   H2         1.0     0.665500      0.574000      0.074000     Biso  1.000000 H
   H2         1.0     0.334500      0.426000      0.926000     Biso  1.000000 H
   H2         1.0     0.665500      0.426000      0.926000     Biso  1.000000 H
   H2         1.0     0.334500      0.574000      0.074000     Biso  1.000000 H
   H2         1.0     0.334500      0.426000      0.074000     Biso  1.000000 H
   H2         1.0     0.665500      0.574000      0.926000     Biso  1.000000 H
   H2         1.0     0.334500      0.574000      0.926000     Biso  1.000000 H
   H2         1.0     0.665500      0.426000      0.074000     Biso  1.000000 H
   H2         1.0     0.574000      0.665500      0.074000     Biso  1.000000 H
   H2         1.0     0.426000      0.334500      0.926000     Biso  1.000000 H
   H2         1.0     0.426000      0.665500      0.926000     Biso  1.000000 H
   H2         1.0     0.574000      0.334500      0.074000     Biso  1.000000 H
   H2         1.0     0.574000      0.334500      0.926000     Biso  1.000000 H
   H2         1.0     0.426000      0.665500      0.074000     Biso  1.000000 H
   H2         1.0     0.426000      0.334500      0.074000     Biso  1.000000 H
   H2         1.0     0.574000      0.665500      0.926000     Biso  1.000000 H
   C3         1.0     0.068560      0.107690      0.198910     Biso  1.000000 C
   C3         1.0     0.931440      0.892310      0.801090     Biso  1.000000 C
   C3         1.0     0.931440      0.892310      0.198910     Biso  1.000000 C
   C3         1.0     0.068560      0.107690      0.801090     Biso  1.000000 C
   C3         1.0     0.931440      0.107690      0.801090     Biso  1.000000 C
   C3         1.0     0.068560      0.892310      0.198910     Biso  1.000000 C
   C3         1.0     0.068560      0.892310      0.801090     Biso  1.000000 C
   C3         1.0     0.931440      0.107690      0.198910     Biso  1.000000 C
   C3         1.0     0.198910      0.068560      0.107690     Biso  1.000000 C
   C3         1.0     0.801090      0.931440      0.892310     Biso  1.000000 C
   C3         1.0     0.198910      0.931440      0.892310     Biso  1.000000 C
   C3         1.0     0.801090      0.068560      0.107690     Biso  1.000000 C
   C3         1.0     0.801090      0.931440      0.107690     Biso  1.000000 C
   C3         1.0     0.198910      0.068560      0.892310     Biso  1.000000 C
   C3         1.0     0.801090      0.068560      0.892310     Biso  1.000000 C
   C3         1.0     0.198910      0.931440      0.107690     Biso  1.000000 C
   C3         1.0     0.107690      0.198910      0.068560     Biso  1.000000 C
   C3         1.0     0.892310      0.801090      0.931440     Biso  1.000000 C
   C3         1.0     0.892310      0.198910      0.931440     Biso  1.000000 C
   C3         1.0     0.107690      0.801090      0.068560     Biso  1.000000 C
   C3         1.0     0.107690      0.801090      0.931440     Biso  1.000000 C
   C3         1.0     0.892310      0.198910      0.068560     Biso  1.000000 C
   C3         1.0     0.892310      0.801090      0.068560     Biso  1.000000 C
   C3         1.0     0.107690      0.198910      0.931440     Biso  1.000000 C
   C3         1.0     0.107690      0.068560      0.801090     Biso  1.000000 C
   C3         1.0     0.892310      0.931440      0.198910     Biso  1.000000 C
   C3         1.0     0.892310      0.931440      0.801090     Biso  1.000000 C
   C3         1.0     0.107690      0.068560      0.198910     Biso  1.000000 C
   C3         1.0     0.107690      0.931440      0.198910     Biso  1.000000 C
   C3         1.0     0.892310      0.068560      0.801090     Biso  1.000000 C
   C3         1.0     0.892310      0.068560      0.198910     Biso  1.000000 C
   C3         1.0     0.107690      0.931440      0.801090     Biso  1.000000 C
   C3         1.0     0.068560      0.198910      0.892310     Biso  1.000000 C
   C3         1.0     0.931440      0.801090      0.107690     Biso  1.000000 C
   C3         1.0     0.931440      0.198910      0.107690     Biso  1.000000 C
   C3         1.0     0.068560      0.801090      0.892310     Biso  1.000000 C
   C3         1.0     0.931440      0.801090      0.892310     Biso  1.000000 C
   C3         1.0     0.068560      0.198910      0.107690     Biso  1.000000 C
   C3         1.0     0.068560      0.801090      0.107690     Biso  1.000000 C
   C3         1.0     0.931440      0.198910      0.892310     Biso  1.000000 C
   C3         1.0     0.198910      0.107690      0.931440     Biso  1.000000 C
   C3         1.0     0.801090      0.892310      0.068560     Biso  1.000000 C
   C3         1.0     0.198910      0.892310      0.068560     Biso  1.000000 C
   C3         1.0     0.801090      0.107690      0.931440     Biso  1.000000 C
   C3         1.0     0.801090      0.107690      0.068560     Biso  1.000000 C
   C3         1.0     0.198910      0.892310      0.931440     Biso  1.000000 C
   C3         1.0     0.801090      0.892310      0.931440     Biso  1.000000 C
   C3         1.0     0.198910      0.107690      0.068560     Biso  1.000000 C
   C3         1.0     0.068560      0.607690      0.698910     Biso  1.000000 C
   C3         1.0     0.931440      0.392310      0.301090     Biso  1.000000 C
   C3         1.0     0.931440      0.392310      0.698910     Biso  1.000000 C
   C3         1.0     0.068560      0.607690      0.301090     Biso  1.000000 C
   C3         1.0     0.931440      0.607690      0.301090     Biso  1.000000 C
   C3         1.0     0.068560      0.392310      0.698910     Biso  1.000000 C
   C3         1.0     0.068560      0.392310      0.301090     Biso  1.000000 C
   C3         1.0     0.931440      0.607690      0.698910     Biso  1.000000 C
   C3         1.0     0.198910      0.568560      0.607690     Biso  1.000000 C
   C3         1.0     0.801090      0.431440      0.392310     Biso  1.000000 C
   C3         1.0     0.198910      0.431440      0.392310     Biso  1.000000 C
   C3         1.0     0.801090      0.568560      0.607690     Biso  1.000000 C
   C3         1.0     0.801090      0.431440      0.607690     Biso  1.000000 C
   C3         1.0     0.198910      0.568560      0.392310     Biso  1.000000 C
   C3         1.0     0.801090      0.568560      0.392310     Biso  1.000000 C
   C3         1.0     0.198910      0.431440      0.607690     Biso  1.000000 C
   C3         1.0     0.107690      0.698910      0.568560     Biso  1.000000 C
   C3         1.0     0.892310      0.301090      0.431440     Biso  1.000000 C
   C3         1.0     0.892310      0.698910      0.431440     Biso  1.000000 C
   C3         1.0     0.107690      0.301090      0.568560     Biso  1.000000 C
   C3         1.0     0.107690      0.301090      0.431440     Biso  1.000000 C
   C3         1.0     0.892310      0.698910      0.568560     Biso  1.000000 C
   C3         1.0     0.892310      0.301090      0.568560     Biso  1.000000 C
   C3         1.0     0.107690      0.698910      0.431440     Biso  1.000000 C
   C3         1.0     0.107690      0.568560      0.301090     Biso  1.000000 C
   C3         1.0     0.892310      0.431440      0.698910     Biso  1.000000 C
   C3         1.0     0.892310      0.431440      0.301090     Biso  1.000000 C
   C3         1.0     0.107690      0.568560      0.698910     Biso  1.000000 C
   C3         1.0     0.107690      0.431440      0.698910     Biso  1.000000 C
   C3         1.0     0.892310      0.568560      0.301090     Biso  1.000000 C
   C3         1.0     0.892310      0.568560      0.698910     Biso  1.000000 C
   C3         1.0     0.107690      0.431440      0.301090     Biso  1.000000 C
   C3         1.0     0.068560      0.698910      0.392310     Biso  1.000000 C
   C3         1.0     0.931440      0.301090      0.607690     Biso  1.000000 C
   C3         1.0     0.931440      0.698910      0.607690     Biso  1.000000 C
   C3         1.0     0.068560      0.301090      0.392310     Biso  1.000000 C
   C3         1.0     0.931440      0.301090      0.392310     Biso  1.000000 C
   C3         1.0     0.068560      0.698910      0.607690     Biso  1.000000 C
   C3         1.0     0.068560      0.301090      0.607690     Biso  1.000000 C
   C3         1.0     0.931440      0.698910      0.392310     Biso  1.000000 C
   C3         1.0     0.198910      0.607690      0.431440     Biso  1.000000 C
   C3         1.0     0.801090      0.392310      0.568560     Biso  1.000000 C
   C3         1.0     0.198910      0.392310      0.568560     Biso  1.000000 C
   C3         1.0     0.801090      0.607690      0.431440     Biso  1.000000 C
   C3         1.0     0.801090      0.607690      0.568560     Biso  1.000000 C
   C3         1.0     0.198910      0.392310      0.431440     Biso  1.000000 C
   C3         1.0     0.801090      0.392310      0.431440     Biso  1.000000 C
   C3         1.0     0.198910      0.607690      0.568560     Biso  1.000000 C
   C3         1.0     0.568560      0.107690      0.698910     Biso  1.000000 C
   C3         1.0     0.431440      0.892310      0.301090     Biso  1.000000 C
   C3         1.0     0.431440      0.892310      0.698910     Biso  1.000000 C
   C3         1.0     0.568560      0.107690      0.301090     Biso  1.000000 C
   C3         1.0     0.431440      0.107690      0.301090     Biso  1.000000 C
   C3         1.0     0.568560      0.892310      0.698910     Biso  1.000000 C
   C3         1.0     0.568560      0.892310      0.301090     Biso  1.000000 C
   C3         1.0     0.431440      0.107690      0.698910     Biso  1.000000 C
   C3         1.0     0.698910      0.068560      0.607690     Biso  1.000000 C
   C3         1.0     0.301090      0.931440      0.392310     Biso  1.000000 C
   C3         1.0     0.698910      0.931440      0.392310     Biso  1.000000 C
   C3         1.0     0.301090      0.068560      0.607690     Biso  1.000000 C
   C3         1.0     0.301090      0.931440      0.607690     Biso  1.000000 C
   C3         1.0     0.698910      0.068560      0.392310     Biso  1.000000 C
   C3         1.0     0.301090      0.068560      0.392310     Biso  1.000000 C
   C3         1.0     0.698910      0.931440      0.607690     Biso  1.000000 C
   C3         1.0     0.607690      0.198910      0.568560     Biso  1.000000 C
   C3         1.0     0.392310      0.801090      0.431440     Biso  1.000000 C
   C3         1.0     0.392310      0.198910      0.431440     Biso  1.000000 C
   C3         1.0     0.607690      0.801090      0.568560     Biso  1.000000 C
   C3         1.0     0.607690      0.801090      0.431440     Biso  1.000000 C
   C3         1.0     0.392310      0.198910      0.568560     Biso  1.000000 C
   C3         1.0     0.392310      0.801090      0.568560     Biso  1.000000 C
   C3         1.0     0.607690      0.198910      0.431440     Biso  1.000000 C
   C3         1.0     0.607690      0.068560      0.301090     Biso  1.000000 C
   C3         1.0     0.392310      0.931440      0.698910     Biso  1.000000 C
   C3         1.0     0.392310      0.931440      0.301090     Biso  1.000000 C
   C3         1.0     0.607690      0.068560      0.698910     Biso  1.000000 C
   C3         1.0     0.607690      0.931440      0.698910     Biso  1.000000 C
   C3         1.0     0.392310      0.068560      0.301090     Biso  1.000000 C
   C3         1.0     0.392310      0.068560      0.698910     Biso  1.000000 C
   C3         1.0     0.607690      0.931440      0.301090     Biso  1.000000 C
   C3         1.0     0.568560      0.198910      0.392310     Biso  1.000000 C
   C3         1.0     0.431440      0.801090      0.607690     Biso  1.000000 C
   C3         1.0     0.431440      0.198910      0.607690     Biso  1.000000 C
   C3         1.0     0.568560      0.801090      0.392310     Biso  1.000000 C
   C3         1.0     0.431440      0.801090      0.392310     Biso  1.000000 C
   C3         1.0     0.568560      0.198910      0.607690     Biso  1.000000 C
   C3         1.0     0.568560      0.801090      0.607690     Biso  1.000000 C
   C3         1.0     0.431440      0.198910      0.392310     Biso  1.000000 C
   C3         1.0     0.698910      0.107690      0.431440     Biso  1.000000 C
   C3         1.0     0.301090      0.892310      0.568560     Biso  1.000000 C
   C3         1.0     0.698910      0.892310      0.568560     Biso  1.000000 C
   C3         1.0     0.301090      0.107690      0.431440     Biso  1.000000 C
   C3         1.0     0.301090      0.107690      0.568560     Biso  1.000000 C
   C3         1.0     0.698910      0.892310      0.431440     Biso  1.000000 C
   C3         1.0     0.301090      0.892310      0.431440     Biso  1.000000 C
   C3         1.0     0.698910      0.107690      0.568560     Biso  1.000000 C
   C3         1.0     0.568560      0.607690      0.198910     Biso  1.000000 C
   C3         1.0     0.431440      0.392310      0.801090     Biso  1.000000 C
   C3         1.0     0.431440      0.392310      0.198910     Biso  1.000000 C
   C3         1.0     0.568560      0.607690      0.801090     Biso  1.000000 C
   C3         1.0     0.431440      0.607690      0.801090     Biso  1.000000 C
   C3         1.0     0.568560      0.392310      0.198910     Biso  1.000000 C
   C3         1.0     0.568560      0.392310      0.801090     Biso  1.000000 C
   C3         1.0     0.431440      0.607690      0.198910     Biso  1.000000 C
   C3         1.0     0.698910      0.568560      0.107690     Biso  1.000000 C
   C3         1.0     0.301090      0.431440      0.892310     Biso  1.000000 C
   C3         1.0     0.698910      0.431440      0.892310     Biso  1.000000 C
   C3         1.0     0.301090      0.568560      0.107690     Biso  1.000000 C
   C3         1.0     0.301090      0.431440      0.107690     Biso  1.000000 C
   C3         1.0     0.698910      0.568560      0.892310     Biso  1.000000 C
   C3         1.0     0.301090      0.568560      0.892310     Biso  1.000000 C
   C3         1.0     0.698910      0.431440      0.107690     Biso  1.000000 C
   C3         1.0     0.607690      0.698910      0.068560     Biso  1.000000 C
   C3         1.0     0.392310      0.301090      0.931440     Biso  1.000000 C
   C3         1.0     0.392310      0.698910      0.931440     Biso  1.000000 C
   C3         1.0     0.607690      0.301090      0.068560     Biso  1.000000 C
   C3         1.0     0.607690      0.301090      0.931440     Biso  1.000000 C
   C3         1.0     0.392310      0.698910      0.068560     Biso  1.000000 C
   C3         1.0     0.392310      0.301090      0.068560     Biso  1.000000 C
   C3         1.0     0.607690      0.698910      0.931440     Biso  1.000000 C
   C3         1.0     0.607690      0.568560      0.801090     Biso  1.000000 C
   C3         1.0     0.392310      0.431440      0.198910     Biso  1.000000 C
   C3         1.0     0.392310      0.431440      0.801090     Biso  1.000000 C
   C3         1.0     0.607690      0.568560      0.198910     Biso  1.000000 C
   C3         1.0     0.607690      0.431440      0.198910     Biso  1.000000 C
   C3         1.0     0.392310      0.568560      0.801090     Biso  1.000000 C
   C3         1.0     0.392310      0.568560      0.198910     Biso  1.000000 C
   C3         1.0     0.607690      0.431440      0.801090     Biso  1.000000 C
   C3         1.0     0.568560      0.698910      0.892310     Biso  1.000000 C
   C3         1.0     0.431440      0.301090      0.107690     Biso  1.000000 C
   C3         1.0     0.431440      0.698910      0.107690     Biso  1.000000 C
   C3         1.0     0.568560      0.301090      0.892310     Biso  1.000000 C
   C3         1.0     0.431440      0.301090      0.892310     Biso  1.000000 C
   C3         1.0     0.568560      0.698910      0.107690     Biso  1.000000 C
   C3         1.0     0.568560      0.301090      0.107690     Biso  1.000000 C
   C3         1.0     0.431440      0.698910      0.892310     Biso  1.000000 C
   C3         1.0     0.698910      0.607690      0.931440     Biso  1.000000 C
   C3         1.0     0.301090      0.392310      0.068560     Biso  1.000000 C
   C3         1.0     0.698910      0.392310      0.068560     Biso  1.000000 C
   C3         1.0     0.301090      0.607690      0.931440     Biso  1.000000 C
   C3         1.0     0.301090      0.607690      0.068560     Biso  1.000000 C
   C3         1.0     0.698910      0.392310      0.931440     Biso  1.000000 C
   C3         1.0     0.301090      0.392310      0.931440     Biso  1.000000 C
   C3         1.0     0.698910      0.607690      0.068560     Biso  1.000000 C
   C4         1.0     0.078380      0.118220      0.228160     Biso  1.000000 C
   C4         1.0     0.921620      0.881780      0.771840     Biso  1.000000 C
   C4         1.0     0.921620      0.881780      0.228160     Biso  1.000000 C
   C4         1.0     0.078380      0.118220      0.771840     Biso  1.000000 C
   C4         1.0     0.921620      0.118220      0.771840     Biso  1.000000 C
   C4         1.0     0.078380      0.881780      0.228160     Biso  1.000000 C
   C4         1.0     0.078380      0.881780      0.771840     Biso  1.000000 C
   C4         1.0     0.921620      0.118220      0.228160     Biso  1.000000 C
   C4         1.0     0.228160      0.078380      0.118220     Biso  1.000000 C
   C4         1.0     0.771840      0.921620      0.881780     Biso  1.000000 C
   C4         1.0     0.228160      0.921620      0.881780     Biso  1.000000 C
   C4         1.0     0.771840      0.078380      0.118220     Biso  1.000000 C
   C4         1.0     0.771840      0.921620      0.118220     Biso  1.000000 C
   C4         1.0     0.228160      0.078380      0.881780     Biso  1.000000 C
   C4         1.0     0.771840      0.078380      0.881780     Biso  1.000000 C
   C4         1.0     0.228160      0.921620      0.118220     Biso  1.000000 C
   C4         1.0     0.118220      0.228160      0.078380     Biso  1.000000 C
   C4         1.0     0.881780      0.771840      0.921620     Biso  1.000000 C
   C4         1.0     0.881780      0.228160      0.921620     Biso  1.000000 C
   C4         1.0     0.118220      0.771840      0.078380     Biso  1.000000 C
   C4         1.0     0.118220      0.771840      0.921620     Biso  1.000000 C
   C4         1.0     0.881780      0.228160      0.078380     Biso  1.000000 C
   C4         1.0     0.881780      0.771840      0.078380     Biso  1.000000 C
   C4         1.0     0.118220      0.228160      0.921620     Biso  1.000000 C
   C4         1.0     0.118220      0.078380      0.771840     Biso  1.000000 C
   C4         1.0     0.881780      0.921620      0.228160     Biso  1.000000 C
   C4         1.0     0.881780      0.921620      0.771840     Biso  1.000000 C
   C4         1.0     0.118220      0.078380      0.228160     Biso  1.000000 C
   C4         1.0     0.118220      0.921620      0.228160     Biso  1.000000 C
   C4         1.0     0.881780      0.078380      0.771840     Biso  1.000000 C
   C4         1.0     0.881780      0.078380      0.228160     Biso  1.000000 C
   C4         1.0     0.118220      0.921620      0.771840     Biso  1.000000 C
   C4         1.0     0.078380      0.228160      0.881780     Biso  1.000000 C
   C4         1.0     0.921620      0.771840      0.118220     Biso  1.000000 C
   C4         1.0     0.921620      0.228160      0.118220     Biso  1.000000 C
   C4         1.0     0.078380      0.771840      0.881780     Biso  1.000000 C
   C4         1.0     0.921620      0.771840      0.881780     Biso  1.000000 C
   C4         1.0     0.078380      0.228160      0.118220     Biso  1.000000 C
   C4         1.0     0.078380      0.771840      0.118220     Biso  1.000000 C
   C4         1.0     0.921620      0.228160      0.881780     Biso  1.000000 C
   C4         1.0     0.228160      0.118220      0.921620     Biso  1.000000 C
   C4         1.0     0.771840      0.881780      0.078380     Biso  1.000000 C
   C4         1.0     0.228160      0.881780      0.078380     Biso  1.000000 C
   C4         1.0     0.771840      0.118220      0.921620     Biso  1.000000 C
   C4         1.0     0.771840      0.118220      0.078380     Biso  1.000000 C
   C4         1.0     0.228160      0.881780      0.921620     Biso  1.000000 C
   C4         1.0     0.771840      0.881780      0.921620     Biso  1.000000 C
   C4         1.0     0.228160      0.118220      0.078380     Biso  1.000000 C
   C4         1.0     0.078380      0.618220      0.728160     Biso  1.000000 C
   C4         1.0     0.921620      0.381780      0.271840     Biso  1.000000 C
   C4         1.0     0.921620      0.381780      0.728160     Biso  1.000000 C
   C4         1.0     0.078380      0.618220      0.271840     Biso  1.000000 C
   C4         1.0     0.921620      0.618220      0.271840     Biso  1.000000 C
   C4         1.0     0.078380      0.381780      0.728160     Biso  1.000000 C
   C4         1.0     0.078380      0.381780      0.271840     Biso  1.000000 C
   C4         1.0     0.921620      0.618220      0.728160     Biso  1.000000 C
   C4         1.0     0.228160      0.578380      0.618220     Biso  1.000000 C
   C4         1.0     0.771840      0.421620      0.381780     Biso  1.000000 C
   C4         1.0     0.228160      0.421620      0.381780     Biso  1.000000 C
   C4         1.0     0.771840      0.578380      0.618220     Biso  1.000000 C
   C4         1.0     0.771840      0.421620      0.618220     Biso  1.000000 C
   C4         1.0     0.228160      0.578380      0.381780     Biso  1.000000 C
   C4         1.0     0.771840      0.578380      0.381780     Biso  1.000000 C
   C4         1.0     0.228160      0.421620      0.618220     Biso  1.000000 C
   C4         1.0     0.118220      0.728160      0.578380     Biso  1.000000 C
   C4         1.0     0.881780      0.271840      0.421620     Biso  1.000000 C
   C4         1.0     0.881780      0.728160      0.421620     Biso  1.000000 C
   C4         1.0     0.118220      0.271840      0.578380     Biso  1.000000 C
   C4         1.0     0.118220      0.271840      0.421620     Biso  1.000000 C
   C4         1.0     0.881780      0.728160      0.578380     Biso  1.000000 C
   C4         1.0     0.881780      0.271840      0.578380     Biso  1.000000 C
   C4         1.0     0.118220      0.728160      0.421620     Biso  1.000000 C
   C4         1.0     0.118220      0.578380      0.271840     Biso  1.000000 C
   C4         1.0     0.881780      0.421620      0.728160     Biso  1.000000 C
   C4         1.0     0.881780      0.421620      0.271840     Biso  1.000000 C
   C4         1.0     0.118220      0.578380      0.728160     Biso  1.000000 C
   C4         1.0     0.118220      0.421620      0.728160     Biso  1.000000 C
   C4         1.0     0.881780      0.578380      0.271840     Biso  1.000000 C
   C4         1.0     0.881780      0.578380      0.728160     Biso  1.000000 C
   C4         1.0     0.118220      0.421620      0.271840     Biso  1.000000 C
   C4         1.0     0.078380      0.728160      0.381780     Biso  1.000000 C
   C4         1.0     0.921620      0.271840      0.618220     Biso  1.000000 C
   C4         1.0     0.921620      0.728160      0.618220     Biso  1.000000 C
   C4         1.0     0.078380      0.271840      0.381780     Biso  1.000000 C
   C4         1.0     0.921620      0.271840      0.381780     Biso  1.000000 C
   C4         1.0     0.078380      0.728160      0.618220     Biso  1.000000 C
   C4         1.0     0.078380      0.271840      0.618220     Biso  1.000000 C
   C4         1.0     0.921620      0.728160      0.381780     Biso  1.000000 C
   C4         1.0     0.228160      0.618220      0.421620     Biso  1.000000 C
   C4         1.0     0.771840      0.381780      0.578380     Biso  1.000000 C
   C4         1.0     0.228160      0.381780      0.578380     Biso  1.000000 C
   C4         1.0     0.771840      0.618220      0.421620     Biso  1.000000 C
   C4         1.0     0.771840      0.618220      0.578380     Biso  1.000000 C
   C4         1.0     0.228160      0.381780      0.421620     Biso  1.000000 C
   C4         1.0     0.771840      0.381780      0.421620     Biso  1.000000 C
   C4         1.0     0.228160      0.618220      0.578380     Biso  1.000000 C
   C4         1.0     0.578380      0.118220      0.728160     Biso  1.000000 C
   C4         1.0     0.421620      0.881780      0.271840     Biso  1.000000 C
   C4         1.0     0.421620      0.881780      0.728160     Biso  1.000000 C
   C4         1.0     0.578380      0.118220      0.271840     Biso  1.000000 C
   C4         1.0     0.421620      0.118220      0.271840     Biso  1.000000 C
   C4         1.0     0.578380      0.881780      0.728160     Biso  1.000000 C
   C4         1.0     0.578380      0.881780      0.271840     Biso  1.000000 C
   C4         1.0     0.421620      0.118220      0.728160     Biso  1.000000 C
   C4         1.0     0.728160      0.078380      0.618220     Biso  1.000000 C
   C4         1.0     0.271840      0.921620      0.381780     Biso  1.000000 C
   C4         1.0     0.728160      0.921620      0.381780     Biso  1.000000 C
   C4         1.0     0.271840      0.078380      0.618220     Biso  1.000000 C
   C4         1.0     0.271840      0.921620      0.618220     Biso  1.000000 C
   C4         1.0     0.728160      0.078380      0.381780     Biso  1.000000 C
   C4         1.0     0.271840      0.078380      0.381780     Biso  1.000000 C
   C4         1.0     0.728160      0.921620      0.618220     Biso  1.000000 C
   C4         1.0     0.618220      0.228160      0.578380     Biso  1.000000 C
   C4         1.0     0.381780      0.771840      0.421620     Biso  1.000000 C
   C4         1.0     0.381780      0.228160      0.421620     Biso  1.000000 C
   C4         1.0     0.618220      0.771840      0.578380     Biso  1.000000 C
   C4         1.0     0.618220      0.771840      0.421620     Biso  1.000000 C
   C4         1.0     0.381780      0.228160      0.578380     Biso  1.000000 C
   C4         1.0     0.381780      0.771840      0.578380     Biso  1.000000 C
   C4         1.0     0.618220      0.228160      0.421620     Biso  1.000000 C
   C4         1.0     0.618220      0.078380      0.271840     Biso  1.000000 C
   C4         1.0     0.381780      0.921620      0.728160     Biso  1.000000 C
   C4         1.0     0.381780      0.921620      0.271840     Biso  1.000000 C
   C4         1.0     0.618220      0.078380      0.728160     Biso  1.000000 C
   C4         1.0     0.618220      0.921620      0.728160     Biso  1.000000 C
   C4         1.0     0.381780      0.078380      0.271840     Biso  1.000000 C
   C4         1.0     0.381780      0.078380      0.728160     Biso  1.000000 C
   C4         1.0     0.618220      0.921620      0.271840     Biso  1.000000 C
   C4         1.0     0.578380      0.228160      0.381780     Biso  1.000000 C
   C4         1.0     0.421620      0.771840      0.618220     Biso  1.000000 C
   C4         1.0     0.421620      0.228160      0.618220     Biso  1.000000 C
   C4         1.0     0.578380      0.771840      0.381780     Biso  1.000000 C
   C4         1.0     0.421620      0.771840      0.381780     Biso  1.000000 C
   C4         1.0     0.578380      0.228160      0.618220     Biso  1.000000 C
   C4         1.0     0.578380      0.771840      0.618220     Biso  1.000000 C
   C4         1.0     0.421620      0.228160      0.381780     Biso  1.000000 C
   C4         1.0     0.728160      0.118220      0.421620     Biso  1.000000 C
   C4         1.0     0.271840      0.881780      0.578380     Biso  1.000000 C
   C4         1.0     0.728160      0.881780      0.578380     Biso  1.000000 C
   C4         1.0     0.271840      0.118220      0.421620     Biso  1.000000 C
   C4         1.0     0.271840      0.118220      0.578380     Biso  1.000000 C
   C4         1.0     0.728160      0.881780      0.421620     Biso  1.000000 C
   C4         1.0     0.271840      0.881780      0.421620     Biso  1.000000 C
   C4         1.0     0.728160      0.118220      0.578380     Biso  1.000000 C
   C4         1.0     0.578380      0.618220      0.228160     Biso  1.000000 C
   C4         1.0     0.421620      0.381780      0.771840     Biso  1.000000 C
   C4         1.0     0.421620      0.381780      0.228160     Biso  1.000000 C
   C4         1.0     0.578380      0.618220      0.771840     Biso  1.000000 C
   C4         1.0     0.421620      0.618220      0.771840     Biso  1.000000 C
   C4         1.0     0.578380      0.381780      0.228160     Biso  1.000000 C
   C4         1.0     0.578380      0.381780      0.771840     Biso  1.000000 C
   C4         1.0     0.421620      0.618220      0.228160     Biso  1.000000 C
   C4         1.0     0.728160      0.578380      0.118220     Biso  1.000000 C
   C4         1.0     0.271840      0.421620      0.881780     Biso  1.000000 C
   C4         1.0     0.728160      0.421620      0.881780     Biso  1.000000 C
   C4         1.0     0.271840      0.578380      0.118220     Biso  1.000000 C
   C4         1.0     0.271840      0.421620      0.118220     Biso  1.000000 C
   C4         1.0     0.728160      0.578380      0.881780     Biso  1.000000 C
   C4         1.0     0.271840      0.578380      0.881780     Biso  1.000000 C
   C4         1.0     0.728160      0.421620      0.118220     Biso  1.000000 C
   C4         1.0     0.618220      0.728160      0.078380     Biso  1.000000 C
   C4         1.0     0.381780      0.271840      0.921620     Biso  1.000000 C
   C4         1.0     0.381780      0.728160      0.921620     Biso  1.000000 C
   C4         1.0     0.618220      0.271840      0.078380     Biso  1.000000 C
   C4         1.0     0.618220      0.271840      0.921620     Biso  1.000000 C
   C4         1.0     0.381780      0.728160      0.078380     Biso  1.000000 C
   C4         1.0     0.381780      0.271840      0.078380     Biso  1.000000 C
   C4         1.0     0.618220      0.728160      0.921620     Biso  1.000000 C
   C4         1.0     0.618220      0.578380      0.771840     Biso  1.000000 C
   C4         1.0     0.381780      0.421620      0.228160     Biso  1.000000 C
   C4         1.0     0.381780      0.421620      0.771840     Biso  1.000000 C
   C4         1.0     0.618220      0.578380      0.228160     Biso  1.000000 C
   C4         1.0     0.618220      0.421620      0.228160     Biso  1.000000 C
   C4         1.0     0.381780      0.578380      0.771840     Biso  1.000000 C
   C4         1.0     0.381780      0.578380      0.228160     Biso  1.000000 C
   C4         1.0     0.618220      0.421620      0.771840     Biso  1.000000 C
   C4         1.0     0.578380      0.728160      0.881780     Biso  1.000000 C
   C4         1.0     0.421620      0.271840      0.118220     Biso  1.000000 C
   C4         1.0     0.421620      0.728160      0.118220     Biso  1.000000 C
   C4         1.0     0.578380      0.271840      0.881780     Biso  1.000000 C
   C4         1.0     0.421620      0.271840      0.881780     Biso  1.000000 C
   C4         1.0     0.578380      0.728160      0.118220     Biso  1.000000 C
   C4         1.0     0.578380      0.271840      0.118220     Biso  1.000000 C
   C4         1.0     0.421620      0.728160      0.881780     Biso  1.000000 C
   C4         1.0     0.728160      0.618220      0.921620     Biso  1.000000 C
   C4         1.0     0.271840      0.381780      0.078380     Biso  1.000000 C
   C4         1.0     0.728160      0.381780      0.078380     Biso  1.000000 C
   C4         1.0     0.271840      0.618220      0.921620     Biso  1.000000 C
   C4         1.0     0.271840      0.618220      0.078380     Biso  1.000000 C
   C4         1.0     0.728160      0.381780      0.921620     Biso  1.000000 C
   C4         1.0     0.271840      0.381780      0.921620     Biso  1.000000 C
   C4         1.0     0.728160      0.618220      0.078380     Biso  1.000000 C
   H4         1.0     0.068400      0.135500      0.237800     Biso  1.000000 H
   H4         1.0     0.931600      0.864500      0.762200     Biso  1.000000 H
   H4         1.0     0.931600      0.864500      0.237800     Biso  1.000000 H
   H4         1.0     0.068400      0.135500      0.762200     Biso  1.000000 H
   H4         1.0     0.931600      0.135500      0.762200     Biso  1.000000 H
   H4         1.0     0.068400      0.864500      0.237800     Biso  1.000000 H
   H4         1.0     0.068400      0.864500      0.762200     Biso  1.000000 H
   H4         1.0     0.931600      0.135500      0.237800     Biso  1.000000 H
   H4         1.0     0.237800      0.068400      0.135500     Biso  1.000000 H
   H4         1.0     0.762200      0.931600      0.864500     Biso  1.000000 H
   H4         1.0     0.237800      0.931600      0.864500     Biso  1.000000 H
   H4         1.0     0.762200      0.068400      0.135500     Biso  1.000000 H
   H4         1.0     0.762200      0.931600      0.135500     Biso  1.000000 H
   H4         1.0     0.237800      0.068400      0.864500     Biso  1.000000 H
   H4         1.0     0.762200      0.068400      0.864500     Biso  1.000000 H
   H4         1.0     0.237800      0.931600      0.135500     Biso  1.000000 H
   H4         1.0     0.135500      0.237800      0.068400     Biso  1.000000 H
   H4         1.0     0.864500      0.762200      0.931600     Biso  1.000000 H
   H4         1.0     0.864500      0.237800      0.931600     Biso  1.000000 H
   H4         1.0     0.135500      0.762200      0.068400     Biso  1.000000 H
   H4         1.0     0.135500      0.762200      0.931600     Biso  1.000000 H
   H4         1.0     0.864500      0.237800      0.068400     Biso  1.000000 H
   H4         1.0     0.864500      0.762200      0.068400     Biso  1.000000 H
   H4         1.0     0.135500      0.237800      0.931600     Biso  1.000000 H
   H4         1.0     0.135500      0.068400      0.762200     Biso  1.000000 H
   H4         1.0     0.864500      0.931600      0.237800     Biso  1.000000 H
   H4         1.0     0.864500      0.931600      0.762200     Biso  1.000000 H
   H4         1.0     0.135500      0.068400      0.237800     Biso  1.000000 H
   H4         1.0     0.135500      0.931600      0.237800     Biso  1.000000 H
   H4         1.0     0.864500      0.068400      0.762200     Biso  1.000000 H
   H4         1.0     0.864500      0.068400      0.237800     Biso  1.000000 H
   H4         1.0     0.135500      0.931600      0.762200     Biso  1.000000 H
   H4         1.0     0.068400      0.237800      0.864500     Biso  1.000000 H
   H4         1.0     0.931600      0.762200      0.135500     Biso  1.000000 H
   H4         1.0     0.931600      0.237800      0.135500     Biso  1.000000 H
   H4         1.0     0.068400      0.762200      0.864500     Biso  1.000000 H
   H4         1.0     0.931600      0.762200      0.864500     Biso  1.000000 H
   H4         1.0     0.068400      0.237800      0.135500     Biso  1.000000 H
   H4         1.0     0.068400      0.762200      0.135500     Biso  1.000000 H
   H4         1.0     0.931600      0.237800      0.864500     Biso  1.000000 H
   H4         1.0     0.237800      0.135500      0.931600     Biso  1.000000 H
   H4         1.0     0.762200      0.864500      0.068400     Biso  1.000000 H
   H4         1.0     0.237800      0.864500      0.068400     Biso  1.000000 H
   H4         1.0     0.762200      0.135500      0.931600     Biso  1.000000 H
   H4         1.0     0.762200      0.135500      0.068400     Biso  1.000000 H
   H4         1.0     0.237800      0.864500      0.931600     Biso  1.000000 H
   H4         1.0     0.762200      0.864500      0.931600     Biso  1.000000 H
   H4         1.0     0.237800      0.135500      0.068400     Biso  1.000000 H
   H4         1.0     0.068400      0.635500      0.737800     Biso  1.000000 H
   H4         1.0     0.931600      0.364500      0.262200     Biso  1.000000 H
   H4         1.0     0.931600      0.364500      0.737800     Biso  1.000000 H
   H4         1.0     0.068400      0.635500      0.262200     Biso  1.000000 H
   H4         1.0     0.931600      0.635500      0.262200     Biso  1.000000 H
   H4         1.0     0.068400      0.364500      0.737800     Biso  1.000000 H
   H4         1.0     0.068400      0.364500      0.262200     Biso  1.000000 H
   H4         1.0     0.931600      0.635500      0.737800     Biso  1.000000 H
   H4         1.0     0.237800      0.568400      0.635500     Biso  1.000000 H
   H4         1.0     0.762200      0.431600      0.364500     Biso  1.000000 H
   H4         1.0     0.237800      0.431600      0.364500     Biso  1.000000 H
   H4         1.0     0.762200      0.568400      0.635500     Biso  1.000000 H
   H4         1.0     0.762200      0.431600      0.635500     Biso  1.000000 H
   H4         1.0     0.237800      0.568400      0.364500     Biso  1.000000 H
   H4         1.0     0.762200      0.568400      0.364500     Biso  1.000000 H
   H4         1.0     0.237800      0.431600      0.635500     Biso  1.000000 H
   H4         1.0     0.135500      0.737800      0.568400     Biso  1.000000 H
   H4         1.0     0.864500      0.262200      0.431600     Biso  1.000000 H
   H4         1.0     0.864500      0.737800      0.431600     Biso  1.000000 H
   H4         1.0     0.135500      0.262200      0.568400     Biso  1.000000 H
   H4         1.0     0.135500      0.262200      0.431600     Biso  1.000000 H
   H4         1.0     0.864500      0.737800      0.568400     Biso  1.000000 H
   H4         1.0     0.864500      0.262200      0.568400     Biso  1.000000 H
   H4         1.0     0.135500      0.737800      0.431600     Biso  1.000000 H
   H4         1.0     0.135500      0.568400      0.262200     Biso  1.000000 H
   H4         1.0     0.864500      0.431600      0.737800     Biso  1.000000 H
   H4         1.0     0.864500      0.431600      0.262200     Biso  1.000000 H
   H4         1.0     0.135500      0.568400      0.737800     Biso  1.000000 H
   H4         1.0     0.135500      0.431600      0.737800     Biso  1.000000 H
   H4         1.0     0.864500      0.568400      0.262200     Biso  1.000000 H
   H4         1.0     0.864500      0.568400      0.737800     Biso  1.000000 H
   H4         1.0     0.135500      0.431600      0.262200     Biso  1.000000 H
   H4         1.0     0.068400      0.737800      0.364500     Biso  1.000000 H
   H4         1.0     0.931600      0.262200      0.635500     Biso  1.000000 H
   H4         1.0     0.931600      0.737800      0.635500     Biso  1.000000 H
   H4         1.0     0.068400      0.262200      0.364500     Biso  1.000000 H
   H4         1.0     0.931600      0.262200      0.364500     Biso  1.000000 H
   H4         1.0     0.068400      0.737800      0.635500     Biso  1.000000 H
   H4         1.0     0.068400      0.262200      0.635500     Biso  1.000000 H
   H4         1.0     0.931600      0.737800      0.364500     Biso  1.000000 H
   H4         1.0     0.237800      0.635500      0.431600     Biso  1.000000 H
   H4         1.0     0.762200      0.364500      0.568400     Biso  1.000000 H
   H4         1.0     0.237800      0.364500      0.568400     Biso  1.000000 H
   H4         1.0     0.762200      0.635500      0.431600     Biso  1.000000 H
   H4         1.0     0.762200      0.635500      0.568400     Biso  1.000000 H
   H4         1.0     0.237800      0.364500      0.431600     Biso  1.000000 H
   H4         1.0     0.762200      0.364500      0.431600     Biso  1.000000 H
   H4         1.0     0.237800      0.635500      0.568400     Biso  1.000000 H
   H4         1.0     0.568400      0.135500      0.737800     Biso  1.000000 H
   H4         1.0     0.431600      0.864500      0.262200     Biso  1.000000 H
   H4         1.0     0.431600      0.864500      0.737800     Biso  1.000000 H
   H4         1.0     0.568400      0.135500      0.262200     Biso  1.000000 H
   H4         1.0     0.431600      0.135500      0.262200     Biso  1.000000 H
   H4         1.0     0.568400      0.864500      0.737800     Biso  1.000000 H
   H4         1.0     0.568400      0.864500      0.262200     Biso  1.000000 H
   H4         1.0     0.431600      0.135500      0.737800     Biso  1.000000 H
   H4         1.0     0.737800      0.068400      0.635500     Biso  1.000000 H
   H4         1.0     0.262200      0.931600      0.364500     Biso  1.000000 H
   H4         1.0     0.737800      0.931600      0.364500     Biso  1.000000 H
   H4         1.0     0.262200      0.068400      0.635500     Biso  1.000000 H
   H4         1.0     0.262200      0.931600      0.635500     Biso  1.000000 H
   H4         1.0     0.737800      0.068400      0.364500     Biso  1.000000 H
   H4         1.0     0.262200      0.068400      0.364500     Biso  1.000000 H
   H4         1.0     0.737800      0.931600      0.635500     Biso  1.000000 H
   H4         1.0     0.635500      0.237800      0.568400     Biso  1.000000 H
   H4         1.0     0.364500      0.762200      0.431600     Biso  1.000000 H
   H4         1.0     0.364500      0.237800      0.431600     Biso  1.000000 H
   H4         1.0     0.635500      0.762200      0.568400     Biso  1.000000 H
   H4         1.0     0.635500      0.762200      0.431600     Biso  1.000000 H
   H4         1.0     0.364500      0.237800      0.568400     Biso  1.000000 H
   H4         1.0     0.364500      0.762200      0.568400     Biso  1.000000 H
   H4         1.0     0.635500      0.237800      0.431600     Biso  1.000000 H
   H4         1.0     0.635500      0.068400      0.262200     Biso  1.000000 H
   H4         1.0     0.364500      0.931600      0.737800     Biso  1.000000 H
   H4         1.0     0.364500      0.931600      0.262200     Biso  1.000000 H
   H4         1.0     0.635500      0.068400      0.737800     Biso  1.000000 H
   H4         1.0     0.635500      0.931600      0.737800     Biso  1.000000 H
   H4         1.0     0.364500      0.068400      0.262200     Biso  1.000000 H
   H4         1.0     0.364500      0.068400      0.737800     Biso  1.000000 H
   H4         1.0     0.635500      0.931600      0.262200     Biso  1.000000 H
   H4         1.0     0.568400      0.237800      0.364500     Biso  1.000000 H
   H4         1.0     0.431600      0.762200      0.635500     Biso  1.000000 H
   H4         1.0     0.431600      0.237800      0.635500     Biso  1.000000 H
   H4         1.0     0.568400      0.762200      0.364500     Biso  1.000000 H
   H4         1.0     0.431600      0.762200      0.364500     Biso  1.000000 H
   H4         1.0     0.568400      0.237800      0.635500     Biso  1.000000 H
   H4         1.0     0.568400      0.762200      0.635500     Biso  1.000000 H
   H4         1.0     0.431600      0.237800      0.364500     Biso  1.000000 H
   H4         1.0     0.737800      0.135500      0.431600     Biso  1.000000 H
   H4         1.0     0.262200      0.864500      0.568400     Biso  1.000000 H
   H4         1.0     0.737800      0.864500      0.568400     Biso  1.000000 H
   H4         1.0     0.262200      0.135500      0.431600     Biso  1.000000 H
   H4         1.0     0.262200      0.135500      0.568400     Biso  1.000000 H
   H4         1.0     0.737800      0.864500      0.431600     Biso  1.000000 H
   H4         1.0     0.262200      0.864500      0.431600     Biso  1.000000 H
   H4         1.0     0.737800      0.135500      0.568400     Biso  1.000000 H
   H4         1.0     0.568400      0.635500      0.237800     Biso  1.000000 H
   H4         1.0     0.431600      0.364500      0.762200     Biso  1.000000 H
   H4         1.0     0.431600      0.364500      0.237800     Biso  1.000000 H
   H4         1.0     0.568400      0.635500      0.762200     Biso  1.000000 H
   H4         1.0     0.431600      0.635500      0.762200     Biso  1.000000 H
   H4         1.0     0.568400      0.364500      0.237800     Biso  1.000000 H
   H4         1.0     0.568400      0.364500      0.762200     Biso  1.000000 H
   H4         1.0     0.431600      0.635500      0.237800     Biso  1.000000 H
   H4         1.0     0.737800      0.568400      0.135500     Biso  1.000000 H
   H4         1.0     0.262200      0.431600      0.864500     Biso  1.000000 H
   H4         1.0     0.737800      0.431600      0.864500     Biso  1.000000 H
   H4         1.0     0.262200      0.568400      0.135500     Biso  1.000000 H
   H4         1.0     0.262200      0.431600      0.135500     Biso  1.000000 H
   H4         1.0     0.737800      0.568400      0.864500     Biso  1.000000 H
   H4         1.0     0.262200      0.568400      0.864500     Biso  1.000000 H
   H4         1.0     0.737800      0.431600      0.135500     Biso  1.000000 H
   H4         1.0     0.635500      0.737800      0.068400     Biso  1.000000 H
   H4         1.0     0.364500      0.262200      0.931600     Biso  1.000000 H
   H4         1.0     0.364500      0.737800      0.931600     Biso  1.000000 H
   H4         1.0     0.635500      0.262200      0.068400     Biso  1.000000 H
   H4         1.0     0.635500      0.262200      0.931600     Biso  1.000000 H
   H4         1.0     0.364500      0.737800      0.068400     Biso  1.000000 H
   H4         1.0     0.364500      0.262200      0.068400     Biso  1.000000 H
   H4         1.0     0.635500      0.737800      0.931600     Biso  1.000000 H
   H4         1.0     0.635500      0.568400      0.762200     Biso  1.000000 H
   H4         1.0     0.364500      0.431600      0.237800     Biso  1.000000 H
   H4         1.0     0.364500      0.431600      0.762200     Biso  1.000000 H
   H4         1.0     0.635500      0.568400      0.237800     Biso  1.000000 H
   H4         1.0     0.635500      0.431600      0.237800     Biso  1.000000 H
   H4         1.0     0.364500      0.568400      0.762200     Biso  1.000000 H
   H4         1.0     0.364500      0.568400      0.237800     Biso  1.000000 H
   H4         1.0     0.635500      0.431600      0.762200     Biso  1.000000 H
   H4         1.0     0.568400      0.737800      0.864500     Biso  1.000000 H
   H4         1.0     0.431600      0.262200      0.135500     Biso  1.000000 H
   H4         1.0     0.431600      0.737800      0.135500     Biso  1.000000 H
   H4         1.0     0.568400      0.262200      0.864500     Biso  1.000000 H
   H4         1.0     0.431600      0.262200      0.864500     Biso  1.000000 H
   H4         1.0     0.568400      0.737800      0.135500     Biso  1.000000 H
   H4         1.0     0.568400      0.262200      0.135500     Biso  1.000000 H
   H4         1.0     0.431600      0.737800      0.864500     Biso  1.000000 H
   H4         1.0     0.737800      0.635500      0.931600     Biso  1.000000 H
   H4         1.0     0.262200      0.364500      0.068400     Biso  1.000000 H
   H4         1.0     0.737800      0.364500      0.068400     Biso  1.000000 H
   H4         1.0     0.262200      0.635500      0.931600     Biso  1.000000 H
   H4         1.0     0.262200      0.635500      0.068400     Biso  1.000000 H
   H4         1.0     0.737800      0.364500      0.931600     Biso  1.000000 H
   H4         1.0     0.262200      0.364500      0.931600     Biso  1.000000 H
   H4         1.0     0.737800      0.635500      0.068400     Biso  1.000000 H
   C5         1.0     0.102980      0.102980      0.242800     Biso  1.000000 C
   C5         1.0     0.897020      0.897020      0.757200     Biso  1.000000 C
   C5         1.0     0.897020      0.897020      0.242800     Biso  1.000000 C
   C5         1.0     0.102980      0.102980      0.757200     Biso  1.000000 C
   C5         1.0     0.897020      0.102980      0.757200     Biso  1.000000 C
   C5         1.0     0.102980      0.897020      0.242800     Biso  1.000000 C
   C5         1.0     0.102980      0.897020      0.757200     Biso  1.000000 C
   C5         1.0     0.897020      0.102980      0.242800     Biso  1.000000 C
   C5         1.0     0.242800      0.102980      0.102980     Biso  1.000000 C
   C5         1.0     0.757200      0.897020      0.897020     Biso  1.000000 C
   C5         1.0     0.242800      0.897020      0.897020     Biso  1.000000 C
   C5         1.0     0.757200      0.102980      0.102980     Biso  1.000000 C
   C5         1.0     0.757200      0.897020      0.102980     Biso  1.000000 C
   C5         1.0     0.242800      0.102980      0.897020     Biso  1.000000 C
   C5         1.0     0.757200      0.102980      0.897020     Biso  1.000000 C
   C5         1.0     0.242800      0.897020      0.102980     Biso  1.000000 C
   C5         1.0     0.102980      0.242800      0.102980     Biso  1.000000 C
   C5         1.0     0.897020      0.757200      0.897020     Biso  1.000000 C
   C5         1.0     0.897020      0.242800      0.897020     Biso  1.000000 C
   C5         1.0     0.102980      0.757200      0.102980     Biso  1.000000 C
   C5         1.0     0.102980      0.757200      0.897020     Biso  1.000000 C
   C5         1.0     0.897020      0.242800      0.102980     Biso  1.000000 C
   C5         1.0     0.897020      0.757200      0.102980     Biso  1.000000 C
   C5         1.0     0.102980      0.242800      0.897020     Biso  1.000000 C
   C5         1.0     0.102980      0.602980      0.742800     Biso  1.000000 C
   C5         1.0     0.897020      0.397020      0.257200     Biso  1.000000 C
   C5         1.0     0.897020      0.397020      0.742800     Biso  1.000000 C
   C5         1.0     0.102980      0.602980      0.257200     Biso  1.000000 C
   C5         1.0     0.897020      0.602980      0.257200     Biso  1.000000 C
   C5         1.0     0.102980      0.397020      0.742800     Biso  1.000000 C
   C5         1.0     0.102980      0.397020      0.257200     Biso  1.000000 C
   C5         1.0     0.897020      0.602980      0.742800     Biso  1.000000 C
   C5         1.0     0.242800      0.602980      0.602980     Biso  1.000000 C
   C5         1.0     0.757200      0.397020      0.397020     Biso  1.000000 C
   C5         1.0     0.242800      0.397020      0.397020     Biso  1.000000 C
   C5         1.0     0.757200      0.602980      0.602980     Biso  1.000000 C
   C5         1.0     0.757200      0.397020      0.602980     Biso  1.000000 C
   C5         1.0     0.242800      0.602980      0.397020     Biso  1.000000 C
   C5         1.0     0.757200      0.602980      0.397020     Biso  1.000000 C
   C5         1.0     0.242800      0.397020      0.602980     Biso  1.000000 C
   C5         1.0     0.102980      0.742800      0.602980     Biso  1.000000 C
   C5         1.0     0.897020      0.257200      0.397020     Biso  1.000000 C
   C5         1.0     0.897020      0.742800      0.397020     Biso  1.000000 C
   C5         1.0     0.102980      0.257200      0.602980     Biso  1.000000 C
   C5         1.0     0.102980      0.257200      0.397020     Biso  1.000000 C
   C5         1.0     0.897020      0.742800      0.602980     Biso  1.000000 C
   C5         1.0     0.897020      0.257200      0.602980     Biso  1.000000 C
   C5         1.0     0.102980      0.742800      0.397020     Biso  1.000000 C
   C5         1.0     0.602980      0.102980      0.742800     Biso  1.000000 C
   C5         1.0     0.397020      0.897020      0.257200     Biso  1.000000 C
   C5         1.0     0.397020      0.897020      0.742800     Biso  1.000000 C
   C5         1.0     0.602980      0.102980      0.257200     Biso  1.000000 C
   C5         1.0     0.397020      0.102980      0.257200     Biso  1.000000 C
   C5         1.0     0.602980      0.897020      0.742800     Biso  1.000000 C
   C5         1.0     0.602980      0.897020      0.257200     Biso  1.000000 C
   C5         1.0     0.397020      0.102980      0.742800     Biso  1.000000 C
   C5         1.0     0.742800      0.102980      0.602980     Biso  1.000000 C
   C5         1.0     0.257200      0.897020      0.397020     Biso  1.000000 C
   C5         1.0     0.742800      0.897020      0.397020     Biso  1.000000 C
   C5         1.0     0.257200      0.102980      0.602980     Biso  1.000000 C
   C5         1.0     0.257200      0.897020      0.602980     Biso  1.000000 C
   C5         1.0     0.742800      0.102980      0.397020     Biso  1.000000 C
   C5         1.0     0.257200      0.102980      0.397020     Biso  1.000000 C
   C5         1.0     0.742800      0.897020      0.602980     Biso  1.000000 C
   C5         1.0     0.602980      0.242800      0.602980     Biso  1.000000 C
   C5         1.0     0.397020      0.757200      0.397020     Biso  1.000000 C
   C5         1.0     0.397020      0.242800      0.397020     Biso  1.000000 C
   C5         1.0     0.602980      0.757200      0.602980     Biso  1.000000 C
   C5         1.0     0.602980      0.757200      0.397020     Biso  1.000000 C
   C5         1.0     0.397020      0.242800      0.602980     Biso  1.000000 C
   C5         1.0     0.397020      0.757200      0.602980     Biso  1.000000 C
   C5         1.0     0.602980      0.242800      0.397020     Biso  1.000000 C
   C5         1.0     0.602980      0.602980      0.242800     Biso  1.000000 C
   C5         1.0     0.397020      0.397020      0.757200     Biso  1.000000 C
   C5         1.0     0.397020      0.397020      0.242800     Biso  1.000000 C
   C5         1.0     0.602980      0.602980      0.757200     Biso  1.000000 C
   C5         1.0     0.397020      0.602980      0.757200     Biso  1.000000 C
   C5         1.0     0.602980      0.397020      0.242800     Biso  1.000000 C
   C5         1.0     0.602980      0.397020      0.757200     Biso  1.000000 C
   C5         1.0     0.397020      0.602980      0.242800     Biso  1.000000 C
   C5         1.0     0.742800      0.602980      0.102980     Biso  1.000000 C
   C5         1.0     0.257200      0.397020      0.897020     Biso  1.000000 C
   C5         1.0     0.742800      0.397020      0.897020     Biso  1.000000 C
   C5         1.0     0.257200      0.602980      0.102980     Biso  1.000000 C
   C5         1.0     0.257200      0.397020      0.102980     Biso  1.000000 C
   C5         1.0     0.742800      0.602980      0.897020     Biso  1.000000 C
   C5         1.0     0.257200      0.602980      0.897020     Biso  1.000000 C
   C5         1.0     0.742800      0.397020      0.102980     Biso  1.000000 C
   C5         1.0     0.602980      0.742800      0.102980     Biso  1.000000 C
   C5         1.0     0.397020      0.257200      0.897020     Biso  1.000000 C
   C5         1.0     0.397020      0.742800      0.897020     Biso  1.000000 C
   C5         1.0     0.602980      0.257200      0.102980     Biso  1.000000 C
   C5         1.0     0.602980      0.257200      0.897020     Biso  1.000000 C
   C5         1.0     0.397020      0.742800      0.102980     Biso  1.000000 C
   C5         1.0     0.397020      0.257200      0.102980     Biso  1.000000 C
   C5         1.0     0.602980      0.742800      0.897020     Biso  1.000000 C
   C6         1.0     0.112980      0.112980      0.270900     Biso  1.000000 C
   C6         1.0     0.887020      0.887020      0.729100     Biso  1.000000 C
   C6         1.0     0.887020      0.887020      0.270900     Biso  1.000000 C
   C6         1.0     0.112980      0.112980      0.729100     Biso  1.000000 C
   C6         1.0     0.887020      0.112980      0.729100     Biso  1.000000 C
   C6         1.0     0.112980      0.887020      0.270900     Biso  1.000000 C
   C6         1.0     0.112980      0.887020      0.729100     Biso  1.000000 C
   C6         1.0     0.887020      0.112980      0.270900     Biso  1.000000 C
   C6         1.0     0.270900      0.112980      0.112980     Biso  1.000000 C
   C6         1.0     0.729100      0.887020      0.887020     Biso  1.000000 C
   C6         1.0     0.270900      0.887020      0.887020     Biso  1.000000 C
   C6         1.0     0.729100      0.112980      0.112980     Biso  1.000000 C
   C6         1.0     0.729100      0.887020      0.112980     Biso  1.000000 C
   C6         1.0     0.270900      0.112980      0.887020     Biso  1.000000 C
   C6         1.0     0.729100      0.112980      0.887020     Biso  1.000000 C
   C6         1.0     0.270900      0.887020      0.112980     Biso  1.000000 C
   C6         1.0     0.112980      0.270900      0.112980     Biso  1.000000 C
   C6         1.0     0.887020      0.729100      0.887020     Biso  1.000000 C
   C6         1.0     0.887020      0.270900      0.887020     Biso  1.000000 C
   C6         1.0     0.112980      0.729100      0.112980     Biso  1.000000 C
   C6         1.0     0.112980      0.729100      0.887020     Biso  1.000000 C
   C6         1.0     0.887020      0.270900      0.112980     Biso  1.000000 C
   C6         1.0     0.887020      0.729100      0.112980     Biso  1.000000 C
   C6         1.0     0.112980      0.270900      0.887020     Biso  1.000000 C
   C6         1.0     0.112980      0.612980      0.770900     Biso  1.000000 C
   C6         1.0     0.887020      0.387020      0.229100     Biso  1.000000 C
   C6         1.0     0.887020      0.387020      0.770900     Biso  1.000000 C
   C6         1.0     0.112980      0.612980      0.229100     Biso  1.000000 C
   C6         1.0     0.887020      0.612980      0.229100     Biso  1.000000 C
   C6         1.0     0.112980      0.387020      0.770900     Biso  1.000000 C
   C6         1.0     0.112980      0.387020      0.229100     Biso  1.000000 C
   C6         1.0     0.887020      0.612980      0.770900     Biso  1.000000 C
   C6         1.0     0.270900      0.612980      0.612980     Biso  1.000000 C
   C6         1.0     0.729100      0.387020      0.387020     Biso  1.000000 C
   C6         1.0     0.270900      0.387020      0.387020     Biso  1.000000 C
   C6         1.0     0.729100      0.612980      0.612980     Biso  1.000000 C
   C6         1.0     0.729100      0.387020      0.612980     Biso  1.000000 C
   C6         1.0     0.270900      0.612980      0.387020     Biso  1.000000 C
   C6         1.0     0.729100      0.612980      0.387020     Biso  1.000000 C
   C6         1.0     0.270900      0.387020      0.612980     Biso  1.000000 C
   C6         1.0     0.112980      0.770900      0.612980     Biso  1.000000 C
   C6         1.0     0.887020      0.229100      0.387020     Biso  1.000000 C
   C6         1.0     0.887020      0.770900      0.387020     Biso  1.000000 C
   C6         1.0     0.112980      0.229100      0.612980     Biso  1.000000 C
   C6         1.0     0.112980      0.229100      0.387020     Biso  1.000000 C
   C6         1.0     0.887020      0.770900      0.612980     Biso  1.000000 C
   C6         1.0     0.887020      0.229100      0.612980     Biso  1.000000 C
   C6         1.0     0.112980      0.770900      0.387020     Biso  1.000000 C
   C6         1.0     0.612980      0.112980      0.770900     Biso  1.000000 C
   C6         1.0     0.387020      0.887020      0.229100     Biso  1.000000 C
   C6         1.0     0.387020      0.887020      0.770900     Biso  1.000000 C
   C6         1.0     0.612980      0.112980      0.229100     Biso  1.000000 C
   C6         1.0     0.387020      0.112980      0.229100     Biso  1.000000 C
   C6         1.0     0.612980      0.887020      0.770900     Biso  1.000000 C
   C6         1.0     0.612980      0.887020      0.229100     Biso  1.000000 C
   C6         1.0     0.387020      0.112980      0.770900     Biso  1.000000 C
   C6         1.0     0.770900      0.112980      0.612980     Biso  1.000000 C
   C6         1.0     0.229100      0.887020      0.387020     Biso  1.000000 C
   C6         1.0     0.770900      0.887020      0.387020     Biso  1.000000 C
   C6         1.0     0.229100      0.112980      0.612980     Biso  1.000000 C
   C6         1.0     0.229100      0.887020      0.612980     Biso  1.000000 C
   C6         1.0     0.770900      0.112980      0.387020     Biso  1.000000 C
   C6         1.0     0.229100      0.112980      0.387020     Biso  1.000000 C
   C6         1.0     0.770900      0.887020      0.612980     Biso  1.000000 C
   C6         1.0     0.612980      0.270900      0.612980     Biso  1.000000 C
   C6         1.0     0.387020      0.729100      0.387020     Biso  1.000000 C
   C6         1.0     0.387020      0.270900      0.387020     Biso  1.000000 C
   C6         1.0     0.612980      0.729100      0.612980     Biso  1.000000 C
   C6         1.0     0.612980      0.729100      0.387020     Biso  1.000000 C
   C6         1.0     0.387020      0.270900      0.612980     Biso  1.000000 C
   C6         1.0     0.387020      0.729100      0.612980     Biso  1.000000 C
   C6         1.0     0.612980      0.270900      0.387020     Biso  1.000000 C
   C6         1.0     0.612980      0.612980      0.270900     Biso  1.000000 C
   C6         1.0     0.387020      0.387020      0.729100     Biso  1.000000 C
   C6         1.0     0.387020      0.387020      0.270900     Biso  1.000000 C
   C6         1.0     0.612980      0.612980      0.729100     Biso  1.000000 C
   C6         1.0     0.387020      0.612980      0.729100     Biso  1.000000 C
   C6         1.0     0.612980      0.387020      0.270900     Biso  1.000000 C
   C6         1.0     0.612980      0.387020      0.729100     Biso  1.000000 C
   C6         1.0     0.387020      0.612980      0.270900     Biso  1.000000 C
   C6         1.0     0.770900      0.612980      0.112980     Biso  1.000000 C
   C6         1.0     0.229100      0.387020      0.887020     Biso  1.000000 C
   C6         1.0     0.770900      0.387020      0.887020     Biso  1.000000 C
   C6         1.0     0.229100      0.612980      0.112980     Biso  1.000000 C
   C6         1.0     0.229100      0.387020      0.112980     Biso  1.000000 C
   C6         1.0     0.770900      0.612980      0.887020     Biso  1.000000 C
   C6         1.0     0.229100      0.612980      0.887020     Biso  1.000000 C
   C6         1.0     0.770900      0.387020      0.112980     Biso  1.000000 C
   C6         1.0     0.612980      0.770900      0.112980     Biso  1.000000 C
   C6         1.0     0.387020      0.229100      0.887020     Biso  1.000000 C
   C6         1.0     0.387020      0.770900      0.887020     Biso  1.000000 C
   C6         1.0     0.612980      0.229100      0.112980     Biso  1.000000 C
   C6         1.0     0.612980      0.229100      0.887020     Biso  1.000000 C
   C6         1.0     0.387020      0.770900      0.112980     Biso  1.000000 C
   C6         1.0     0.387020      0.229100      0.112980     Biso  1.000000 C
   C6         1.0     0.612980      0.770900      0.887020     Biso  1.000000 C
   C7         1.0     0.122100      0.122100      0.296100     Biso  1.000000 C
   C7         1.0     0.877900      0.877900      0.703900     Biso  1.000000 C
   C7         1.0     0.877900      0.877900      0.296100     Biso  1.000000 C
   C7         1.0     0.122100      0.122100      0.703900     Biso  1.000000 C
   C7         1.0     0.877900      0.122100      0.703900     Biso  1.000000 C
   C7         1.0     0.122100      0.877900      0.296100     Biso  1.000000 C
   C7         1.0     0.122100      0.877900      0.703900     Biso  1.000000 C
   C7         1.0     0.877900      0.122100      0.296100     Biso  1.000000 C
   C7         1.0     0.296100      0.122100      0.122100     Biso  1.000000 C
   C7         1.0     0.703900      0.877900      0.877900     Biso  1.000000 C
   C7         1.0     0.296100      0.877900      0.877900     Biso  1.000000 C
   C7         1.0     0.703900      0.122100      0.122100     Biso  1.000000 C
   C7         1.0     0.703900      0.877900      0.122100     Biso  1.000000 C
   C7         1.0     0.296100      0.122100      0.877900     Biso  1.000000 C
   C7         1.0     0.703900      0.122100      0.877900     Biso  1.000000 C
   C7         1.0     0.296100      0.877900      0.122100     Biso  1.000000 C
   C7         1.0     0.122100      0.296100      0.122100     Biso  1.000000 C
   C7         1.0     0.877900      0.703900      0.877900     Biso  1.000000 C
   C7         1.0     0.877900      0.296100      0.877900     Biso  1.000000 C
   C7         1.0     0.122100      0.703900      0.122100     Biso  1.000000 C
   C7         1.0     0.122100      0.703900      0.877900     Biso  1.000000 C
   C7         1.0     0.877900      0.296100      0.122100     Biso  1.000000 C
   C7         1.0     0.877900      0.703900      0.122100     Biso  1.000000 C
   C7         1.0     0.122100      0.296100      0.877900     Biso  1.000000 C
   C7         1.0     0.122100      0.622100      0.796100     Biso  1.000000 C
   C7         1.0     0.877900      0.377900      0.203900     Biso  1.000000 C
   C7         1.0     0.877900      0.377900      0.796100     Biso  1.000000 C
   C7         1.0     0.122100      0.622100      0.203900     Biso  1.000000 C
   C7         1.0     0.877900      0.622100      0.203900     Biso  1.000000 C
   C7         1.0     0.122100      0.377900      0.796100     Biso  1.000000 C
   C7         1.0     0.122100      0.377900      0.203900     Biso  1.000000 C
   C7         1.0     0.877900      0.622100      0.796100     Biso  1.000000 C
   C7         1.0     0.296100      0.622100      0.622100     Biso  1.000000 C
   C7         1.0     0.703900      0.377900      0.377900     Biso  1.000000 C
   C7         1.0     0.296100      0.377900      0.377900     Biso  1.000000 C
   C7         1.0     0.703900      0.622100      0.622100     Biso  1.000000 C
   C7         1.0     0.703900      0.377900      0.622100     Biso  1.000000 C
   C7         1.0     0.296100      0.622100      0.377900     Biso  1.000000 C
   C7         1.0     0.703900      0.622100      0.377900     Biso  1.000000 C
   C7         1.0     0.296100      0.377900      0.622100     Biso  1.000000 C
   C7         1.0     0.122100      0.796100      0.622100     Biso  1.000000 C
   C7         1.0     0.877900      0.203900      0.377900     Biso  1.000000 C
   C7         1.0     0.877900      0.796100      0.377900     Biso  1.000000 C
   C7         1.0     0.122100      0.203900      0.622100     Biso  1.000000 C
   C7         1.0     0.122100      0.203900      0.377900     Biso  1.000000 C
   C7         1.0     0.877900      0.796100      0.622100     Biso  1.000000 C
   C7         1.0     0.877900      0.203900      0.622100     Biso  1.000000 C
   C7         1.0     0.122100      0.796100      0.377900     Biso  1.000000 C
   C7         1.0     0.622100      0.122100      0.796100     Biso  1.000000 C
   C7         1.0     0.377900      0.877900      0.203900     Biso  1.000000 C
   C7         1.0     0.377900      0.877900      0.796100     Biso  1.000000 C
   C7         1.0     0.622100      0.122100      0.203900     Biso  1.000000 C
   C7         1.0     0.377900      0.122100      0.203900     Biso  1.000000 C
   C7         1.0     0.622100      0.877900      0.796100     Biso  1.000000 C
   C7         1.0     0.622100      0.877900      0.203900     Biso  1.000000 C
   C7         1.0     0.377900      0.122100      0.796100     Biso  1.000000 C
   C7         1.0     0.796100      0.122100      0.622100     Biso  1.000000 C
   C7         1.0     0.203900      0.877900      0.377900     Biso  1.000000 C
   C7         1.0     0.796100      0.877900      0.377900     Biso  1.000000 C
   C7         1.0     0.203900      0.122100      0.622100     Biso  1.000000 C
   C7         1.0     0.203900      0.877900      0.622100     Biso  1.000000 C
   C7         1.0     0.796100      0.122100      0.377900     Biso  1.000000 C
   C7         1.0     0.203900      0.122100      0.377900     Biso  1.000000 C
   C7         1.0     0.796100      0.877900      0.622100     Biso  1.000000 C
   C7         1.0     0.622100      0.296100      0.622100     Biso  1.000000 C
   C7         1.0     0.377900      0.703900      0.377900     Biso  1.000000 C
   C7         1.0     0.377900      0.296100      0.377900     Biso  1.000000 C
   C7         1.0     0.622100      0.703900      0.622100     Biso  1.000000 C
   C7         1.0     0.622100      0.703900      0.377900     Biso  1.000000 C
   C7         1.0     0.377900      0.296100      0.622100     Biso  1.000000 C
   C7         1.0     0.377900      0.703900      0.622100     Biso  1.000000 C
   C7         1.0     0.622100      0.296100      0.377900     Biso  1.000000 C
   C7         1.0     0.622100      0.622100      0.296100     Biso  1.000000 C
   C7         1.0     0.377900      0.377900      0.703900     Biso  1.000000 C
   C7         1.0     0.377900      0.377900      0.296100     Biso  1.000000 C
   C7         1.0     0.622100      0.622100      0.703900     Biso  1.000000 C
   C7         1.0     0.377900      0.622100      0.703900     Biso  1.000000 C
   C7         1.0     0.622100      0.377900      0.296100     Biso  1.000000 C
   C7         1.0     0.622100      0.377900      0.703900     Biso  1.000000 C
   C7         1.0     0.377900      0.622100      0.296100     Biso  1.000000 C
   C7         1.0     0.796100      0.622100      0.122100     Biso  1.000000 C
   C7         1.0     0.203900      0.377900      0.877900     Biso  1.000000 C
   C7         1.0     0.796100      0.377900      0.877900     Biso  1.000000 C
   C7         1.0     0.203900      0.622100      0.122100     Biso  1.000000 C
   C7         1.0     0.203900      0.377900      0.122100     Biso  1.000000 C
   C7         1.0     0.796100      0.622100      0.877900     Biso  1.000000 C
   C7         1.0     0.203900      0.622100      0.877900     Biso  1.000000 C
   C7         1.0     0.796100      0.377900      0.122100     Biso  1.000000 C
   C7         1.0     0.622100      0.796100      0.122100     Biso  1.000000 C
   C7         1.0     0.377900      0.203900      0.877900     Biso  1.000000 C
   C7         1.0     0.377900      0.796100      0.877900     Biso  1.000000 C
   C7         1.0     0.622100      0.203900      0.122100     Biso  1.000000 C
   C7         1.0     0.622100      0.203900      0.877900     Biso  1.000000 C
   C7         1.0     0.377900      0.796100      0.122100     Biso  1.000000 C
   C7         1.0     0.377900      0.203900      0.122100     Biso  1.000000 C
   C7         1.0     0.622100      0.796100      0.877900     Biso  1.000000 C
   C8         1.0     0.133720      0.133720      0.327300     Biso  1.000000 C
   C8         1.0     0.866280      0.866280      0.672700     Biso  1.000000 C
   C8         1.0     0.866280      0.866280      0.327300     Biso  1.000000 C
   C8         1.0     0.133720      0.133720      0.672700     Biso  1.000000 C
   C8         1.0     0.866280      0.133720      0.672700     Biso  1.000000 C
   C8         1.0     0.133720      0.866280      0.327300     Biso  1.000000 C
   C8         1.0     0.133720      0.866280      0.672700     Biso  1.000000 C
   C8         1.0     0.866280      0.133720      0.327300     Biso  1.000000 C
   C8         1.0     0.327300      0.133720      0.133720     Biso  1.000000 C
   C8         1.0     0.672700      0.866280      0.866280     Biso  1.000000 C
   C8         1.0     0.327300      0.866280      0.866280     Biso  1.000000 C
   C8         1.0     0.672700      0.133720      0.133720     Biso  1.000000 C
   C8         1.0     0.672700      0.866280      0.133720     Biso  1.000000 C
   C8         1.0     0.327300      0.133720      0.866280     Biso  1.000000 C
   C8         1.0     0.672700      0.133720      0.866280     Biso  1.000000 C
   C8         1.0     0.327300      0.866280      0.133720     Biso  1.000000 C
   C8         1.0     0.133720      0.327300      0.133720     Biso  1.000000 C
   C8         1.0     0.866280      0.672700      0.866280     Biso  1.000000 C
   C8         1.0     0.866280      0.327300      0.866280     Biso  1.000000 C
   C8         1.0     0.133720      0.672700      0.133720     Biso  1.000000 C
   C8         1.0     0.133720      0.672700      0.866280     Biso  1.000000 C
   C8         1.0     0.866280      0.327300      0.133720     Biso  1.000000 C
   C8         1.0     0.866280      0.672700      0.133720     Biso  1.000000 C
   C8         1.0     0.133720      0.327300      0.866280     Biso  1.000000 C
   C8         1.0     0.133720      0.633720      0.827300     Biso  1.000000 C
   C8         1.0     0.866280      0.366280      0.172700     Biso  1.000000 C
   C8         1.0     0.866280      0.366280      0.827300     Biso  1.000000 C
   C8         1.0     0.133720      0.633720      0.172700     Biso  1.000000 C
   C8         1.0     0.866280      0.633720      0.172700     Biso  1.000000 C
   C8         1.0     0.133720      0.366280      0.827300     Biso  1.000000 C
   C8         1.0     0.133720      0.366280      0.172700     Biso  1.000000 C
   C8         1.0     0.866280      0.633720      0.827300     Biso  1.000000 C
   C8         1.0     0.327300      0.633720      0.633720     Biso  1.000000 C
   C8         1.0     0.672700      0.366280      0.366280     Biso  1.000000 C
   C8         1.0     0.327300      0.366280      0.366280     Biso  1.000000 C
   C8         1.0     0.672700      0.633720      0.633720     Biso  1.000000 C
   C8         1.0     0.672700      0.366280      0.633720     Biso  1.000000 C
   C8         1.0     0.327300      0.633720      0.366280     Biso  1.000000 C
   C8         1.0     0.672700      0.633720      0.366280     Biso  1.000000 C
   C8         1.0     0.327300      0.366280      0.633720     Biso  1.000000 C
   C8         1.0     0.133720      0.827300      0.633720     Biso  1.000000 C
   C8         1.0     0.866280      0.172700      0.366280     Biso  1.000000 C
   C8         1.0     0.866280      0.827300      0.366280     Biso  1.000000 C
   C8         1.0     0.133720      0.172700      0.633720     Biso  1.000000 C
   C8         1.0     0.133720      0.172700      0.366280     Biso  1.000000 C
   C8         1.0     0.866280      0.827300      0.633720     Biso  1.000000 C
   C8         1.0     0.866280      0.172700      0.633720     Biso  1.000000 C
   C8         1.0     0.133720      0.827300      0.366280     Biso  1.000000 C
   C8         1.0     0.633720      0.133720      0.827300     Biso  1.000000 C
   C8         1.0     0.366280      0.866280      0.172700     Biso  1.000000 C
   C8         1.0     0.366280      0.866280      0.827300     Biso  1.000000 C
   C8         1.0     0.633720      0.133720      0.172700     Biso  1.000000 C
   C8         1.0     0.366280      0.133720      0.172700     Biso  1.000000 C
   C8         1.0     0.633720      0.866280      0.827300     Biso  1.000000 C
   C8         1.0     0.633720      0.866280      0.172700     Biso  1.000000 C
   C8         1.0     0.366280      0.133720      0.827300     Biso  1.000000 C
   C8         1.0     0.827300      0.133720      0.633720     Biso  1.000000 C
   C8         1.0     0.172700      0.866280      0.366280     Biso  1.000000 C
   C8         1.0     0.827300      0.866280      0.366280     Biso  1.000000 C
   C8         1.0     0.172700      0.133720      0.633720     Biso  1.000000 C
   C8         1.0     0.172700      0.866280      0.633720     Biso  1.000000 C
   C8         1.0     0.827300      0.133720      0.366280     Biso  1.000000 C
   C8         1.0     0.172700      0.133720      0.366280     Biso  1.000000 C
   C8         1.0     0.827300      0.866280      0.633720     Biso  1.000000 C
   C8         1.0     0.633720      0.327300      0.633720     Biso  1.000000 C
   C8         1.0     0.366280      0.672700      0.366280     Biso  1.000000 C
   C8         1.0     0.366280      0.327300      0.366280     Biso  1.000000 C
   C8         1.0     0.633720      0.672700      0.633720     Biso  1.000000 C
   C8         1.0     0.633720      0.672700      0.366280     Biso  1.000000 C
   C8         1.0     0.366280      0.327300      0.633720     Biso  1.000000 C
   C8         1.0     0.366280      0.672700      0.633720     Biso  1.000000 C
   C8         1.0     0.633720      0.327300      0.366280     Biso  1.000000 C
   C8         1.0     0.633720      0.633720      0.327300     Biso  1.000000 C
   C8         1.0     0.366280      0.366280      0.672700     Biso  1.000000 C
   C8         1.0     0.366280      0.366280      0.327300     Biso  1.000000 C
   C8         1.0     0.633720      0.633720      0.672700     Biso  1.000000 C
   C8         1.0     0.366280      0.633720      0.672700     Biso  1.000000 C
   C8         1.0     0.633720      0.366280      0.327300     Biso  1.000000 C
   C8         1.0     0.633720      0.366280      0.672700     Biso  1.000000 C
   C8         1.0     0.366280      0.633720      0.327300     Biso  1.000000 C
   C8         1.0     0.827300      0.633720      0.133720     Biso  1.000000 C
   C8         1.0     0.172700      0.366280      0.866280     Biso  1.000000 C
   C8         1.0     0.827300      0.366280      0.866280     Biso  1.000000 C
   C8         1.0     0.172700      0.633720      0.133720     Biso  1.000000 C
   C8         1.0     0.172700      0.366280      0.133720     Biso  1.000000 C
   C8         1.0     0.827300      0.633720      0.866280     Biso  1.000000 C
   C8         1.0     0.172700      0.633720      0.866280     Biso  1.000000 C
   C8         1.0     0.827300      0.366280      0.133720     Biso  1.000000 C
   C8         1.0     0.633720      0.827300      0.133720     Biso  1.000000 C
   C8         1.0     0.366280      0.172700      0.866280     Biso  1.000000 C
   C8         1.0     0.366280      0.827300      0.866280     Biso  1.000000 C
   C8         1.0     0.633720      0.172700      0.133720     Biso  1.000000 C
   C8         1.0     0.633720      0.172700      0.866280     Biso  1.000000 C
   C8         1.0     0.366280      0.827300      0.133720     Biso  1.000000 C
   C8         1.0     0.366280      0.172700      0.133720     Biso  1.000000 C
   C8         1.0     0.633720      0.827300      0.866280     Biso  1.000000 C
   C9         1.0     0.119500      0.159400      0.340600     Biso  1.000000 C
   C9         1.0     0.880500      0.840600      0.659400     Biso  1.000000 C
   C9         1.0     0.880500      0.840600      0.340600     Biso  1.000000 C
   C9         1.0     0.119500      0.159400      0.659400     Biso  1.000000 C
   C9         1.0     0.880500      0.159400      0.659400     Biso  1.000000 C
   C9         1.0     0.119500      0.840600      0.340600     Biso  1.000000 C
   C9         1.0     0.119500      0.840600      0.659400     Biso  1.000000 C
   C9         1.0     0.880500      0.159400      0.340600     Biso  1.000000 C
   C9         1.0     0.340600      0.119500      0.159400     Biso  1.000000 C
   C9         1.0     0.659400      0.880500      0.840600     Biso  1.000000 C
   C9         1.0     0.340600      0.880500      0.840600     Biso  1.000000 C
   C9         1.0     0.659400      0.119500      0.159400     Biso  1.000000 C
   C9         1.0     0.659400      0.880500      0.159400     Biso  1.000000 C
   C9         1.0     0.340600      0.119500      0.840600     Biso  1.000000 C
   C9         1.0     0.659400      0.119500      0.840600     Biso  1.000000 C
   C9         1.0     0.340600      0.880500      0.159400     Biso  1.000000 C
   C9         1.0     0.159400      0.340600      0.119500     Biso  1.000000 C
   C9         1.0     0.840600      0.659400      0.880500     Biso  1.000000 C
   C9         1.0     0.840600      0.340600      0.880500     Biso  1.000000 C
   C9         1.0     0.159400      0.659400      0.119500     Biso  1.000000 C
   C9         1.0     0.159400      0.659400      0.880500     Biso  1.000000 C
   C9         1.0     0.840600      0.340600      0.119500     Biso  1.000000 C
   C9         1.0     0.840600      0.659400      0.119500     Biso  1.000000 C
   C9         1.0     0.159400      0.340600      0.880500     Biso  1.000000 C
   C9         1.0     0.159400      0.119500      0.659400     Biso  1.000000 C
   C9         1.0     0.840600      0.880500      0.340600     Biso  1.000000 C
   C9         1.0     0.840600      0.880500      0.659400     Biso  1.000000 C
   C9         1.0     0.159400      0.119500      0.340600     Biso  1.000000 C
   C9         1.0     0.159400      0.880500      0.340600     Biso  1.000000 C
   C9         1.0     0.840600      0.119500      0.659400     Biso  1.000000 C
   C9         1.0     0.840600      0.119500      0.340600     Biso  1.000000 C
   C9         1.0     0.159400      0.880500      0.659400     Biso  1.000000 C
   C9         1.0     0.119500      0.340600      0.840600     Biso  1.000000 C
   C9         1.0     0.880500      0.659400      0.159400     Biso  1.000000 C
   C9         1.0     0.880500      0.340600      0.159400     Biso  1.000000 C
   C9         1.0     0.119500      0.659400      0.840600     Biso  1.000000 C
   C9         1.0     0.880500      0.659400      0.840600     Biso  1.000000 C
   C9         1.0     0.119500      0.340600      0.159400     Biso  1.000000 C
   C9         1.0     0.119500      0.659400      0.159400     Biso  1.000000 C
   C9         1.0     0.880500      0.340600      0.840600     Biso  1.000000 C
   C9         1.0     0.340600      0.159400      0.880500     Biso  1.000000 C
   C9         1.0     0.659400      0.840600      0.119500     Biso  1.000000 C
   C9         1.0     0.340600      0.840600      0.119500     Biso  1.000000 C
   C9         1.0     0.659400      0.159400      0.880500     Biso  1.000000 C
   C9         1.0     0.659400      0.159400      0.119500     Biso  1.000000 C
   C9         1.0     0.340600      0.840600      0.880500     Biso  1.000000 C
   C9         1.0     0.659400      0.840600      0.880500     Biso  1.000000 C
   C9         1.0     0.340600      0.159400      0.119500     Biso  1.000000 C
   C9         1.0     0.340600      0.619500      0.659400     Biso  1.000000 C
   C9         1.0     0.659400      0.380500      0.340600     Biso  1.000000 C
   C9         1.0     0.340600      0.380500      0.340600     Biso  1.000000 C
   C9         1.0     0.659400      0.619500      0.659400     Biso  1.000000 C
   C9         1.0     0.659400      0.380500      0.659400     Biso  1.000000 C
   C9         1.0     0.340600      0.619500      0.340600     Biso  1.000000 C
   C9         1.0     0.659400      0.619500      0.340600     Biso  1.000000 C
   C9         1.0     0.340600      0.380500      0.659400     Biso  1.000000 C
   C9         1.0     0.159400      0.840600      0.619500     Biso  1.000000 C
   C9         1.0     0.840600      0.159400      0.380500     Biso  1.000000 C
   C9         1.0     0.840600      0.840600      0.380500     Biso  1.000000 C
   C9         1.0     0.159400      0.159400      0.619500     Biso  1.000000 C
   C9         1.0     0.159400      0.159400      0.380500     Biso  1.000000 C
   C9         1.0     0.840600      0.840600      0.619500     Biso  1.000000 C
   C9         1.0     0.840600      0.159400      0.619500     Biso  1.000000 C
   C9         1.0     0.159400      0.840600      0.380500     Biso  1.000000 C
   C9         1.0     0.159400      0.619500      0.159400     Biso  1.000000 C
   C9         1.0     0.840600      0.380500      0.840600     Biso  1.000000 C
   C9         1.0     0.840600      0.380500      0.159400     Biso  1.000000 C
   C9         1.0     0.159400      0.619500      0.840600     Biso  1.000000 C
   C9         1.0     0.159400      0.380500      0.840600     Biso  1.000000 C
   C9         1.0     0.840600      0.619500      0.159400     Biso  1.000000 C
   C9         1.0     0.840600      0.619500      0.840600     Biso  1.000000 C
   C9         1.0     0.159400      0.380500      0.159400     Biso  1.000000 C
   C9         1.0     0.340600      0.659400      0.380500     Biso  1.000000 C
   C9         1.0     0.659400      0.340600      0.619500     Biso  1.000000 C
   C9         1.0     0.340600      0.340600      0.619500     Biso  1.000000 C
   C9         1.0     0.659400      0.659400      0.380500     Biso  1.000000 C
   C9         1.0     0.659400      0.659400      0.619500     Biso  1.000000 C
   C9         1.0     0.340600      0.340600      0.380500     Biso  1.000000 C
   C9         1.0     0.659400      0.340600      0.380500     Biso  1.000000 C
   C9         1.0     0.340600      0.659400      0.619500     Biso  1.000000 C
   C9         1.0     0.619500      0.159400      0.840600     Biso  1.000000 C
   C9         1.0     0.380500      0.840600      0.159400     Biso  1.000000 C
   C9         1.0     0.380500      0.840600      0.840600     Biso  1.000000 C
   C9         1.0     0.619500      0.159400      0.159400     Biso  1.000000 C
   C9         1.0     0.380500      0.159400      0.159400     Biso  1.000000 C
   C9         1.0     0.619500      0.840600      0.840600     Biso  1.000000 C
   C9         1.0     0.619500      0.840600      0.159400     Biso  1.000000 C
   C9         1.0     0.380500      0.159400      0.840600     Biso  1.000000 C
   C9         1.0     0.619500      0.340600      0.340600     Biso  1.000000 C
   C9         1.0     0.380500      0.659400      0.659400     Biso  1.000000 C
   C9         1.0     0.380500      0.340600      0.659400     Biso  1.000000 C
   C9         1.0     0.619500      0.659400      0.340600     Biso  1.000000 C
   C9         1.0     0.380500      0.659400      0.340600     Biso  1.000000 C
   C9         1.0     0.619500      0.340600      0.659400     Biso  1.000000 C
   C9         1.0     0.619500      0.659400      0.659400     Biso  1.000000 C
   C9         1.0     0.380500      0.340600      0.340600     Biso  1.000000 C
   H9         1.0     0.100600      0.167500      0.332500     Biso  1.000000 H
   H9         1.0     0.899400      0.832500      0.667500     Biso  1.000000 H
   H9         1.0     0.899400      0.832500      0.332500     Biso  1.000000 H
   H9         1.0     0.100600      0.167500      0.667500     Biso  1.000000 H
   H9         1.0     0.899400      0.167500      0.667500     Biso  1.000000 H
   H9         1.0     0.100600      0.832500      0.332500     Biso  1.000000 H
   H9         1.0     0.100600      0.832500      0.667500     Biso  1.000000 H
   H9         1.0     0.899400      0.167500      0.332500     Biso  1.000000 H
   H9         1.0     0.332500      0.100600      0.167500     Biso  1.000000 H
   H9         1.0     0.667500      0.899400      0.832500     Biso  1.000000 H
   H9         1.0     0.332500      0.899400      0.832500     Biso  1.000000 H
   H9         1.0     0.667500      0.100600      0.167500     Biso  1.000000 H
   H9         1.0     0.667500      0.899400      0.167500     Biso  1.000000 H
   H9         1.0     0.332500      0.100600      0.832500     Biso  1.000000 H
   H9         1.0     0.667500      0.100600      0.832500     Biso  1.000000 H
   H9         1.0     0.332500      0.899400      0.167500     Biso  1.000000 H
   H9         1.0     0.167500      0.332500      0.100600     Biso  1.000000 H
   H9         1.0     0.832500      0.667500      0.899400     Biso  1.000000 H
   H9         1.0     0.832500      0.332500      0.899400     Biso  1.000000 H
   H9         1.0     0.167500      0.667500      0.100600     Biso  1.000000 H
   H9         1.0     0.167500      0.667500      0.899400     Biso  1.000000 H
   H9         1.0     0.832500      0.332500      0.100600     Biso  1.000000 H
   H9         1.0     0.832500      0.667500      0.100600     Biso  1.000000 H
   H9         1.0     0.167500      0.332500      0.899400     Biso  1.000000 H
   H9         1.0     0.167500      0.100600      0.667500     Biso  1.000000 H
   H9         1.0     0.832500      0.899400      0.332500     Biso  1.000000 H
   H9         1.0     0.832500      0.899400      0.667500     Biso  1.000000 H
   H9         1.0     0.167500      0.100600      0.332500     Biso  1.000000 H
   H9         1.0     0.167500      0.899400      0.332500     Biso  1.000000 H
   H9         1.0     0.832500      0.100600      0.667500     Biso  1.000000 H
   H9         1.0     0.832500      0.100600      0.332500     Biso  1.000000 H
   H9         1.0     0.167500      0.899400      0.667500     Biso  1.000000 H
   H9         1.0     0.100600      0.332500      0.832500     Biso  1.000000 H
   H9         1.0     0.899400      0.667500      0.167500     Biso  1.000000 H
   H9         1.0     0.899400      0.332500      0.167500     Biso  1.000000 H
   H9         1.0     0.100600      0.667500      0.832500     Biso  1.000000 H
   H9         1.0     0.899400      0.667500      0.832500     Biso  1.000000 H
   H9         1.0     0.100600      0.332500      0.167500     Biso  1.000000 H
   H9         1.0     0.100600      0.667500      0.167500     Biso  1.000000 H
   H9         1.0     0.899400      0.332500      0.832500     Biso  1.000000 H
   H9         1.0     0.332500      0.167500      0.899400     Biso  1.000000 H
   H9         1.0     0.667500      0.832500      0.100600     Biso  1.000000 H
   H9         1.0     0.332500      0.832500      0.100600     Biso  1.000000 H
   H9         1.0     0.667500      0.167500      0.899400     Biso  1.000000 H
   H9         1.0     0.667500      0.167500      0.100600     Biso  1.000000 H
   H9         1.0     0.332500      0.832500      0.899400     Biso  1.000000 H
   H9         1.0     0.667500      0.832500      0.899400     Biso  1.000000 H
   H9         1.0     0.332500      0.167500      0.100600     Biso  1.000000 H
   H9         1.0     0.332500      0.600600      0.667500     Biso  1.000000 H
   H9         1.0     0.667500      0.399400      0.332500     Biso  1.000000 H
   H9         1.0     0.332500      0.399400      0.332500     Biso  1.000000 H
   H9         1.0     0.667500      0.600600      0.667500     Biso  1.000000 H
   H9         1.0     0.667500      0.399400      0.667500     Biso  1.000000 H
   H9         1.0     0.332500      0.600600      0.332500     Biso  1.000000 H
   H9         1.0     0.667500      0.600600      0.332500     Biso  1.000000 H
   H9         1.0     0.332500      0.399400      0.667500     Biso  1.000000 H
   H9         1.0     0.167500      0.832500      0.600600     Biso  1.000000 H
   H9         1.0     0.832500      0.167500      0.399400     Biso  1.000000 H
   H9         1.0     0.832500      0.832500      0.399400     Biso  1.000000 H
   H9         1.0     0.167500      0.167500      0.600600     Biso  1.000000 H
   H9         1.0     0.167500      0.167500      0.399400     Biso  1.000000 H
   H9         1.0     0.832500      0.832500      0.600600     Biso  1.000000 H
   H9         1.0     0.832500      0.167500      0.600600     Biso  1.000000 H
   H9         1.0     0.167500      0.832500      0.399400     Biso  1.000000 H
   H9         1.0     0.167500      0.600600      0.167500     Biso  1.000000 H
   H9         1.0     0.832500      0.399400      0.832500     Biso  1.000000 H
   H9         1.0     0.832500      0.399400      0.167500     Biso  1.000000 H
   H9         1.0     0.167500      0.600600      0.832500     Biso  1.000000 H
   H9         1.0     0.167500      0.399400      0.832500     Biso  1.000000 H
   H9         1.0     0.832500      0.600600      0.167500     Biso  1.000000 H
   H9         1.0     0.832500      0.600600      0.832500     Biso  1.000000 H
   H9         1.0     0.167500      0.399400      0.167500     Biso  1.000000 H
   H9         1.0     0.332500      0.667500      0.399400     Biso  1.000000 H
   H9         1.0     0.667500      0.332500      0.600600     Biso  1.000000 H
   H9         1.0     0.332500      0.332500      0.600600     Biso  1.000000 H
   H9         1.0     0.667500      0.667500      0.399400     Biso  1.000000 H
   H9         1.0     0.667500      0.667500      0.600600     Biso  1.000000 H
   H9         1.0     0.332500      0.332500      0.399400     Biso  1.000000 H
   H9         1.0     0.667500      0.332500      0.399400     Biso  1.000000 H
   H9         1.0     0.332500      0.667500      0.600600     Biso  1.000000 H
   H9         1.0     0.600600      0.167500      0.832500     Biso  1.000000 H
   H9         1.0     0.399400      0.832500      0.167500     Biso  1.000000 H
   H9         1.0     0.399400      0.832500      0.832500     Biso  1.000000 H
   H9         1.0     0.600600      0.167500      0.167500     Biso  1.000000 H
   H9         1.0     0.399400      0.167500      0.167500     Biso  1.000000 H
   H9         1.0     0.600600      0.832500      0.832500     Biso  1.000000 H
   H9         1.0     0.600600      0.832500      0.167500     Biso  1.000000 H
   H9         1.0     0.399400      0.167500      0.832500     Biso  1.000000 H
   H9         1.0     0.600600      0.332500      0.332500     Biso  1.000000 H
   H9         1.0     0.399400      0.667500      0.667500     Biso  1.000000 H
   H9         1.0     0.399400      0.332500      0.667500     Biso  1.000000 H
   H9         1.0     0.600600      0.667500      0.332500     Biso  1.000000 H
   H9         1.0     0.399400      0.667500      0.332500     Biso  1.000000 H
   H9         1.0     0.600600      0.332500      0.667500     Biso  1.000000 H
   H9         1.0     0.600600      0.667500      0.667500     Biso  1.000000 H
   H9         1.0     0.399400      0.332500      0.332500     Biso  1.000000 H
