#======================================================================

# CRYSTAL DATA

#----------------------------------------------------------------------

data_VESTA_phase_1


_chemical_name_common                  ''
_cell_length_a                         41.52620
_cell_length_b                         41.52620
_cell_length_c                         17.49160
_cell_angle_alpha                      90
_cell_angle_beta                       90
_cell_angle_gamma                      120
_space_group_name_H-M_alt              'P 1'
_space_group_IT_number                 1

loop_
_space_group_symop_operation_xyz
   'x, y, z'

loop_
   _atom_site_label
   _atom_site_occupancy
   _atom_site_fract_x
   _atom_site_fract_y
   _atom_site_fract_z
   _atom_site_adp_type
   _atom_site_B_iso_or_equiv
   _atom_site_type_symbol
   Zn1        1.0     0.371700      0.401780      0.659400     Biso  1.000000 Zn
   O1         1.0     0.440360      0.488340      0.661720     Biso  1.000000 O
   O1         1.0     0.294090      0.405760      0.656500     Biso  1.000000 O
   O1         1.0     0.329840      0.388930      0.593580     Biso  1.000000 O
   O1         1.0     0.371940      0.356890      0.686350     Biso  1.000000 O
   O1         1.0     0.416270      0.433810      0.601580     Biso  1.000000 O
   C1         1.0     0.440220      0.467640      0.609500     Biso  1.000000 C
   C2         1.0     0.471250      0.484380      0.552400     Biso  1.000000 C
   C3         1.0     0.472810      0.463940      0.492700     Biso  1.000000 C
   H1         1.0     0.454200      0.438700      0.487600     Biso  1.000000 H
   C3         1.0     0.498360      0.521020      0.558900     Biso  1.000000 C
   H1         1.0     0.497700      0.535400      0.598900     Biso  1.000000 H
   C4         1.0     0.303000      0.394580      0.598200     Biso  1.000000 C
   C5         1.0     0.280370      0.388640      0.528200     Biso  1.000000 C
   C6         1.0     0.254270      0.399890      0.523000     Biso  1.000000 C
   H2         1.0     0.249800      0.410700      0.565100     Biso  1.000000 H
   C7         1.0     0.234960      0.395270      0.456700     Biso  1.000000 C
   H3         1.0     0.217200      0.402700      0.455500     Biso  1.000000 H
   C8         1.0     0.240690      0.380260      0.392200     Biso  1.000000 C
   C7         1.0     0.265750      0.367470      0.398400     Biso  1.000000 C
   H3         1.0     0.269600      0.355800      0.357000     Biso  1.000000 H
   C6         1.0     0.285220      0.371950      0.466300     Biso  1.000000 C
   H2         1.0     0.301900      0.363300      0.469000     Biso  1.000000 H
   C9         1.0     0.221570      0.378040      0.319100     Biso  1.000000 C
   C10        1.0     0.186590      0.374950      0.318300     Biso  1.000000 C
   H4         1.0     0.174800      0.373500      0.364400     Biso  1.000000 H
   C7         1.0     0.109100      0.359000      0.187000     Biso  1.000000 C
   H3         1.0     0.116200      0.351000      0.143700     Biso  1.000000 H
   C6         1.0     0.075700      0.357600      0.189600     Biso  1.000000 C
   H2         1.0     0.059500      0.346800      0.148700     Biso  1.000000 H
   C6         1.0     0.087100      0.384600      0.313700     Biso  1.000000 C
   H2         1.0     0.080000      0.392500      0.357100     Biso  1.000000 H
   C7         1.0     0.120900      0.385500      0.309200     Biso  1.000000 C
   H3         1.0     0.137000      0.396000      0.350400     Biso  1.000000 H
   Zn1        1.0     0.598220      0.969920      0.659400     Biso  1.000000 Zn
   O1         1.0     0.511660      0.952020      0.661720     Biso  1.000000 O
   O1         1.0     0.594240      0.888330      0.656500     Biso  1.000000 O
   O1         1.0     0.611070      0.940910      0.593580     Biso  1.000000 O
   O1         1.0     0.643110      0.015050      0.686350     Biso  1.000000 O
   O1         1.0     0.566190      0.982460      0.601580     Biso  1.000000 O
   C1         1.0     0.532360      0.972580      0.609500     Biso  1.000000 C
   C2         1.0     0.515620      0.986870      0.552400     Biso  1.000000 C
   C3         1.0     0.536060      0.008870      0.492700     Biso  1.000000 C
   H1         1.0     0.561300      0.015500      0.487600     Biso  1.000000 H
   C3         1.0     0.478980      0.977340      0.558900     Biso  1.000000 C
   H1         1.0     0.464600      0.962300      0.598900     Biso  1.000000 H
   C4         1.0     0.605420      0.908420      0.598200     Biso  1.000000 C
   C5         1.0     0.611360      0.891730      0.528200     Biso  1.000000 C
   C6         1.0     0.600110      0.854380      0.523000     Biso  1.000000 C
   H2         1.0     0.589300      0.839100      0.565100     Biso  1.000000 H
   C7         1.0     0.604730      0.839690      0.456700     Biso  1.000000 C
   H3         1.0     0.597300      0.814500      0.455500     Biso  1.000000 H
   C8         1.0     0.619740      0.860430      0.392200     Biso  1.000000 C
   C7         1.0     0.632530      0.898280      0.398400     Biso  1.000000 C
   H3         1.0     0.644200      0.913800      0.357000     Biso  1.000000 H
   C6         1.0     0.628050      0.913270      0.466300     Biso  1.000000 C
   H2         1.0     0.636700      0.938600      0.469000     Biso  1.000000 H
   C9         1.0     0.621960      0.843530      0.319100     Biso  1.000000 C
   C10        1.0     0.625050      0.811640      0.318300     Biso  1.000000 C
   H4         1.0     0.626500      0.801300      0.364400     Biso  1.000000 H
   Zn1        1.0     0.030080      0.628300      0.659400     Biso  1.000000 Zn
   O1         1.0     0.047980      0.559640      0.661720     Biso  1.000000 O
   O1         1.0     0.111670      0.705910      0.656500     Biso  1.000000 O
   O1         1.0     0.059090      0.670160      0.593580     Biso  1.000000 O
   O1         1.0     0.984950      0.628060      0.686350     Biso  1.000000 O
   O1         1.0     0.017540      0.583730      0.601580     Biso  1.000000 O
   C1         1.0     0.027420      0.559780      0.609500     Biso  1.000000 C
   C2         1.0     0.013130      0.528750      0.552400     Biso  1.000000 C
   C3         1.0     0.991130      0.527190      0.492700     Biso  1.000000 C
   H1         1.0     0.984500      0.545800      0.487600     Biso  1.000000 H
   C3         1.0     0.022660      0.501640      0.558900     Biso  1.000000 C
   H1         1.0     0.037700      0.502300      0.598900     Biso  1.000000 H
   C4         1.0     0.091580      0.697000      0.598200     Biso  1.000000 C
   C5         1.0     0.108270      0.719630      0.528200     Biso  1.000000 C
   C6         1.0     0.145620      0.745730      0.523000     Biso  1.000000 C
   H2         1.0     0.160900      0.750200      0.565100     Biso  1.000000 H
   C7         1.0     0.160310      0.765040      0.456700     Biso  1.000000 C
   H3         1.0     0.185500      0.782800      0.455500     Biso  1.000000 H
   C8         1.0     0.139570      0.759310      0.392200     Biso  1.000000 C
   C7         1.0     0.101720      0.734250      0.398400     Biso  1.000000 C
   H3         1.0     0.086200      0.730400      0.357000     Biso  1.000000 H
   C6         1.0     0.086730      0.714780      0.466300     Biso  1.000000 C
   H2         1.0     0.061400      0.698100      0.469000     Biso  1.000000 H
   C9         1.0     0.156470      0.778430      0.319100     Biso  1.000000 C
   C10        1.0     0.188360      0.813410      0.318300     Biso  1.000000 C
   H4         1.0     0.198700      0.825200      0.364400     Biso  1.000000 H
   C7         1.0     0.249900      0.890900      0.187000     Biso  1.000000 C
   H3         1.0     0.234800      0.883800      0.143700     Biso  1.000000 H
   C6         1.0     0.281900      0.924300      0.189600     Biso  1.000000 C
   H2         1.0     0.287300      0.940500      0.148700     Biso  1.000000 H
   C6         1.0     0.297500      0.912900      0.313700     Biso  1.000000 C
   H2         1.0     0.312500      0.920000      0.357100     Biso  1.000000 H
   C7         1.0     0.264600      0.879100      0.309200     Biso  1.000000 C
   H3         1.0     0.259000      0.863000      0.350400     Biso  1.000000 H
   Zn1        1.0     0.628300      0.598220      0.159400     Biso  1.000000 Zn
   O1         1.0     0.559640      0.511660      0.161720     Biso  1.000000 O
   O1         1.0     0.705910      0.594240      0.156500     Biso  1.000000 O
   O1         1.0     0.670160      0.611070      0.093580     Biso  1.000000 O
   O1         1.0     0.628060      0.643110      0.186350     Biso  1.000000 O
   O1         1.0     0.583730      0.566190      0.101580     Biso  1.000000 O
   C1         1.0     0.559780      0.532360      0.109500     Biso  1.000000 C
   C2         1.0     0.528750      0.515620      0.052400     Biso  1.000000 C
   C3         1.0     0.527190      0.536060      0.992700     Biso  1.000000 C
   H1         1.0     0.545800      0.561300      0.987600     Biso  1.000000 H
   C3         1.0     0.501640      0.478980      0.058900     Biso  1.000000 C
   H1         1.0     0.502300      0.464600      0.098900     Biso  1.000000 H
   C4         1.0     0.697000      0.605420      0.098200     Biso  1.000000 C
   C5         1.0     0.719630      0.611360      0.028200     Biso  1.000000 C
   C6         1.0     0.745730      0.600110      0.023000     Biso  1.000000 C
   H2         1.0     0.750200      0.589300      0.065100     Biso  1.000000 H
   C7         1.0     0.765040      0.604730      0.956700     Biso  1.000000 C
   H3         1.0     0.782800      0.597300      0.955500     Biso  1.000000 H
   C8         1.0     0.759310      0.619740      0.892200     Biso  1.000000 C
   C7         1.0     0.734250      0.632530      0.898400     Biso  1.000000 C
   H3         1.0     0.730400      0.644200      0.857000     Biso  1.000000 H
   C6         1.0     0.714780      0.628050      0.966300     Biso  1.000000 C
   H2         1.0     0.698100      0.636700      0.969000     Biso  1.000000 H
   C9         1.0     0.778430      0.621960      0.819100     Biso  1.000000 C
   C10        1.0     0.813410      0.625050      0.818300     Biso  1.000000 C
   H4         1.0     0.825200      0.626500      0.864400     Biso  1.000000 H
   C6         1.0     0.678400      0.461400      0.282200     Biso  1.000000 C
   H2         1.0     0.696700      0.483800      0.302600     Biso  1.000000 H
   C7         1.0     0.683000      0.431000      0.283000     Biso  1.000000 C
   H3         1.0     0.704100      0.432600      0.305300     Biso  1.000000 H
   C7         1.0     0.623400      0.394300      0.224200     Biso  1.000000 C
   H3         1.0     0.604400      0.371600      0.206600     Biso  1.000000 H
   C6         1.0     0.618700      0.424810      0.223800     Biso  1.000000 C
   H2         1.0     0.596600      0.422400      0.205400     Biso  1.000000 H
   Zn1        1.0     0.401780      0.030080      0.159400     Biso  1.000000 Zn
   O1         1.0     0.488340      0.047980      0.161720     Biso  1.000000 O
   O1         1.0     0.405760      0.111670      0.156500     Biso  1.000000 O
   O1         1.0     0.388930      0.059090      0.093580     Biso  1.000000 O
   O1         1.0     0.356890      0.984950      0.186350     Biso  1.000000 O
   O1         1.0     0.433810      0.017540      0.101580     Biso  1.000000 O
   C1         1.0     0.467640      0.027420      0.109500     Biso  1.000000 C
   C2         1.0     0.484380      0.013130      0.052400     Biso  1.000000 C
   C3         1.0     0.463940      0.991130      0.992700     Biso  1.000000 C
   H1         1.0     0.438700      0.984500      0.987600     Biso  1.000000 H
   C3         1.0     0.521020      0.022660      0.058900     Biso  1.000000 C
   H1         1.0     0.535400      0.037700      0.098900     Biso  1.000000 H
   C4         1.0     0.394580      0.091580      0.098200     Biso  1.000000 C
   C5         1.0     0.388640      0.108270      0.028200     Biso  1.000000 C
   C6         1.0     0.399890      0.145620      0.023000     Biso  1.000000 C
   H2         1.0     0.410700      0.160900      0.065100     Biso  1.000000 H
   C7         1.0     0.395270      0.160310      0.956700     Biso  1.000000 C
   H3         1.0     0.402700      0.185500      0.955500     Biso  1.000000 H
   C8         1.0     0.380260      0.139570      0.892200     Biso  1.000000 C
   C7         1.0     0.367470      0.101720      0.898400     Biso  1.000000 C
   H3         1.0     0.355800      0.086200      0.857000     Biso  1.000000 H
   C6         1.0     0.371950      0.086730      0.966300     Biso  1.000000 C
   H2         1.0     0.363300      0.061400      0.969000     Biso  1.000000 H
   C9         1.0     0.378040      0.156470      0.819100     Biso  1.000000 C
   C10        1.0     0.374950      0.188360      0.818300     Biso  1.000000 C
   H4         1.0     0.373500      0.198700      0.864400     Biso  1.000000 H
   Zn1        1.0     0.969920      0.371700      0.159400     Biso  1.000000 Zn
   O1         1.0     0.952020      0.440360      0.161720     Biso  1.000000 O
   O1         1.0     0.888330      0.294090      0.156500     Biso  1.000000 O
   O1         1.0     0.940910      0.329840      0.093580     Biso  1.000000 O
   O1         1.0     0.015050      0.371940      0.186350     Biso  1.000000 O
   O1         1.0     0.982460      0.416270      0.101580     Biso  1.000000 O
   C1         1.0     0.972580      0.440220      0.109500     Biso  1.000000 C
   C2         1.0     0.986870      0.471250      0.052400     Biso  1.000000 C
   C3         1.0     0.008870      0.472810      0.992700     Biso  1.000000 C
   H1         1.0     0.015500      0.454200      0.987600     Biso  1.000000 H
   C3         1.0     0.977340      0.498360      0.058900     Biso  1.000000 C
   H1         1.0     0.962300      0.497700      0.098900     Biso  1.000000 H
   C4         1.0     0.908420      0.303000      0.098200     Biso  1.000000 C
   C5         1.0     0.891730      0.280370      0.028200     Biso  1.000000 C
   C6         1.0     0.854380      0.254270      0.023000     Biso  1.000000 C
   H2         1.0     0.839100      0.249800      0.065100     Biso  1.000000 H
   C7         1.0     0.839690      0.234960      0.956700     Biso  1.000000 C
   H3         1.0     0.814500      0.217200      0.955500     Biso  1.000000 H
   C8         1.0     0.860430      0.240690      0.892200     Biso  1.000000 C
   C7         1.0     0.898280      0.265750      0.898400     Biso  1.000000 C
   H3         1.0     0.913800      0.269600      0.857000     Biso  1.000000 H
   C6         1.0     0.913270      0.285220      0.966300     Biso  1.000000 C
   H2         1.0     0.938600      0.301900      0.969000     Biso  1.000000 H
   C9         1.0     0.843530      0.221570      0.819100     Biso  1.000000 C
   C10        1.0     0.811640      0.186590      0.818300     Biso  1.000000 C
   H4         1.0     0.801300      0.174800      0.864400     Biso  1.000000 H
   Zn1        1.0     0.628300      0.598220      0.340600     Biso  1.000000 Zn
   O1         1.0     0.559640      0.511660      0.338280     Biso  1.000000 O
   O1         1.0     0.705910      0.594240      0.343500     Biso  1.000000 O
   O1         1.0     0.670160      0.611070      0.406420     Biso  1.000000 O
   O1         1.0     0.628060      0.643110      0.313650     Biso  1.000000 O
   O1         1.0     0.583730      0.566190      0.398420     Biso  1.000000 O
   C1         1.0     0.559780      0.532360      0.390500     Biso  1.000000 C
   C2         1.0     0.528750      0.515620      0.447600     Biso  1.000000 C
   C3         1.0     0.527190      0.536060      0.507300     Biso  1.000000 C
   H1         1.0     0.545800      0.561300      0.512400     Biso  1.000000 H
   C3         1.0     0.501640      0.478980      0.441100     Biso  1.000000 C
   H1         1.0     0.502300      0.464600      0.401100     Biso  1.000000 H
   C4         1.0     0.697000      0.605420      0.401800     Biso  1.000000 C
   C5         1.0     0.719630      0.611360      0.471800     Biso  1.000000 C
   C6         1.0     0.745730      0.600110      0.477000     Biso  1.000000 C
   H2         1.0     0.750200      0.589300      0.434900     Biso  1.000000 H
   C7         1.0     0.765040      0.604730      0.543300     Biso  1.000000 C
   H3         1.0     0.782800      0.597300      0.544500     Biso  1.000000 H
   C8         1.0     0.759310      0.619740      0.607800     Biso  1.000000 C
   C7         1.0     0.734250      0.632530      0.601600     Biso  1.000000 C
   H3         1.0     0.730400      0.644200      0.643000     Biso  1.000000 H
   C6         1.0     0.714780      0.628050      0.533700     Biso  1.000000 C
   H2         1.0     0.698100      0.636700      0.531000     Biso  1.000000 H
   C9         1.0     0.778430      0.621960      0.680900     Biso  1.000000 C
   C10        1.0     0.813410      0.625050      0.681700     Biso  1.000000 C
   H4         1.0     0.825200      0.626500      0.635600     Biso  1.000000 H
   C7         1.0     0.890900      0.641000      0.813000     Biso  1.000000 C
   H3         1.0     0.883800      0.649000      0.856300     Biso  1.000000 H
   C6         1.0     0.924300      0.642400      0.810400     Biso  1.000000 C
   H2         1.0     0.940500      0.653200      0.851300     Biso  1.000000 H
   C6         1.0     0.912900      0.615400      0.686300     Biso  1.000000 C
   H2         1.0     0.920000      0.607500      0.642900     Biso  1.000000 H
   C7         1.0     0.879100      0.614500      0.690800     Biso  1.000000 C
   H3         1.0     0.863000      0.604000      0.649600     Biso  1.000000 H
   Zn1        1.0     0.401780      0.030080      0.340600     Biso  1.000000 Zn
   O1         1.0     0.488340      0.047980      0.338280     Biso  1.000000 O
   O1         1.0     0.405760      0.111670      0.343500     Biso  1.000000 O
   O1         1.0     0.388930      0.059090      0.406420     Biso  1.000000 O
   O1         1.0     0.356890      0.984950      0.313650     Biso  1.000000 O
   O1         1.0     0.433810      0.017540      0.398420     Biso  1.000000 O
   C1         1.0     0.467640      0.027420      0.390500     Biso  1.000000 C
   C2         1.0     0.484380      0.013130      0.447600     Biso  1.000000 C
   C3         1.0     0.463940      0.991130      0.507300     Biso  1.000000 C
   H1         1.0     0.438700      0.984500      0.512400     Biso  1.000000 H
   C3         1.0     0.521020      0.022660      0.441100     Biso  1.000000 C
   H1         1.0     0.535400      0.037700      0.401100     Biso  1.000000 H
   C4         1.0     0.394580      0.091580      0.401800     Biso  1.000000 C
   C5         1.0     0.388640      0.108270      0.471800     Biso  1.000000 C
   C6         1.0     0.399890      0.145620      0.477000     Biso  1.000000 C
   H2         1.0     0.410700      0.160900      0.434900     Biso  1.000000 H
   C7         1.0     0.395270      0.160310      0.543300     Biso  1.000000 C
   H3         1.0     0.402700      0.185500      0.544500     Biso  1.000000 H
   C8         1.0     0.380260      0.139570      0.607800     Biso  1.000000 C
   C7         1.0     0.367470      0.101720      0.601600     Biso  1.000000 C
   H3         1.0     0.355800      0.086200      0.643000     Biso  1.000000 H
   C6         1.0     0.371950      0.086730      0.533700     Biso  1.000000 C
   H2         1.0     0.363300      0.061400      0.531000     Biso  1.000000 H
   C9         1.0     0.378040      0.156470      0.680900     Biso  1.000000 C
   C10        1.0     0.374950      0.188360      0.681700     Biso  1.000000 C
   H4         1.0     0.373500      0.198700      0.635600     Biso  1.000000 H
   C7         1.0     0.359000      0.249900      0.813000     Biso  1.000000 C
   H3         1.0     0.351000      0.234800      0.856300     Biso  1.000000 H
   C6         1.0     0.357600      0.281900      0.810400     Biso  1.000000 C
   H2         1.0     0.346800      0.287300      0.851300     Biso  1.000000 H
   C6         1.0     0.384600      0.297500      0.686300     Biso  1.000000 C
   H2         1.0     0.392500      0.312500      0.642900     Biso  1.000000 H
   C7         1.0     0.385500      0.264600      0.690800     Biso  1.000000 C
   H3         1.0     0.396000      0.259000      0.649600     Biso  1.000000 H
   C6         1.0     0.538600      0.217000      0.217800     Biso  1.000000 C
   H2         1.0     0.516200      0.212900      0.197400     Biso  1.000000 H
   C7         1.0     0.569000      0.252000      0.217000     Biso  1.000000 C
   H3         1.0     0.567400      0.271500      0.194700     Biso  1.000000 H
   C7         1.0     0.605700      0.229100      0.275800     Biso  1.000000 C
   H3         1.0     0.628400      0.232800      0.293400     Biso  1.000000 H
   C6         1.0     0.575190      0.193890      0.276200     Biso  1.000000 C
   H2         1.0     0.577600      0.174200      0.294600     Biso  1.000000 H
   Zn1        1.0     0.969920      0.371700      0.340600     Biso  1.000000 Zn
   O1         1.0     0.952020      0.440360      0.338280     Biso  1.000000 O
   O1         1.0     0.888330      0.294090      0.343500     Biso  1.000000 O
   O1         1.0     0.940910      0.329840      0.406420     Biso  1.000000 O
   O1         1.0     0.015050      0.371940      0.313650     Biso  1.000000 O
   O1         1.0     0.982460      0.416270      0.398420     Biso  1.000000 O
   C1         1.0     0.972580      0.440220      0.390500     Biso  1.000000 C
   C2         1.0     0.986870      0.471250      0.447600     Biso  1.000000 C
   C3         1.0     0.008870      0.472810      0.507300     Biso  1.000000 C
   H1         1.0     0.015500      0.454200      0.512400     Biso  1.000000 H
   C3         1.0     0.977340      0.498360      0.441100     Biso  1.000000 C
   H1         1.0     0.962300      0.497700      0.401100     Biso  1.000000 H
   C4         1.0     0.908420      0.303000      0.401800     Biso  1.000000 C
   C5         1.0     0.891730      0.280370      0.471800     Biso  1.000000 C
   C6         1.0     0.854380      0.254270      0.477000     Biso  1.000000 C
   H2         1.0     0.839100      0.249800      0.434900     Biso  1.000000 H
   C7         1.0     0.839690      0.234960      0.543300     Biso  1.000000 C
   H3         1.0     0.814500      0.217200      0.544500     Biso  1.000000 H
   C8         1.0     0.860430      0.240690      0.607800     Biso  1.000000 C
   C7         1.0     0.898280      0.265750      0.601600     Biso  1.000000 C
   H3         1.0     0.913800      0.269600      0.643000     Biso  1.000000 H
   C6         1.0     0.913270      0.285220      0.533700     Biso  1.000000 C
   H2         1.0     0.938600      0.301900      0.531000     Biso  1.000000 H
   C9         1.0     0.843530      0.221570      0.680900     Biso  1.000000 C
   C10        1.0     0.811640      0.186590      0.681700     Biso  1.000000 C
   H4         1.0     0.801300      0.174800      0.635600     Biso  1.000000 H
   C7         1.0     0.750100      0.109100      0.813000     Biso  1.000000 C
   H3         1.0     0.765200      0.116200      0.856300     Biso  1.000000 H
   C6         1.0     0.718100      0.075700      0.810400     Biso  1.000000 C
   H2         1.0     0.712700      0.059500      0.851300     Biso  1.000000 H
   C6         1.0     0.702500      0.087100      0.686300     Biso  1.000000 C
   H2         1.0     0.687500      0.080000      0.642900     Biso  1.000000 H
   C7         1.0     0.735400      0.120900      0.690800     Biso  1.000000 C
   H3         1.0     0.741000      0.137000      0.649600     Biso  1.000000 H
   C6         1.0     0.783000      0.321600      0.217800     Biso  1.000000 C
   H2         1.0     0.787100      0.303300      0.197400     Biso  1.000000 H
   C7         1.0     0.748000      0.317000      0.217000     Biso  1.000000 C
   H3         1.0     0.728500      0.295900      0.194700     Biso  1.000000 H
   C7         1.0     0.770900      0.376600      0.275800     Biso  1.000000 C
   H3         1.0     0.767200      0.395600      0.293400     Biso  1.000000 H
   C6         1.0     0.806110      0.381300      0.276200     Biso  1.000000 C
   H2         1.0     0.825800      0.403400      0.294600     Biso  1.000000 H
   Zn1        1.0     0.371700      0.401780      0.840600     Biso  1.000000 Zn
   O1         1.0     0.440360      0.488340      0.838280     Biso  1.000000 O
   O1         1.0     0.294090      0.405760      0.843500     Biso  1.000000 O
   O1         1.0     0.329840      0.388930      0.906420     Biso  1.000000 O
   O1         1.0     0.371940      0.356890      0.813650     Biso  1.000000 O
   O1         1.0     0.416270      0.433810      0.898420     Biso  1.000000 O
   C1         1.0     0.440220      0.467640      0.890500     Biso  1.000000 C
   C2         1.0     0.471250      0.484380      0.947600     Biso  1.000000 C
   C3         1.0     0.472810      0.463940      0.007300     Biso  1.000000 C
   H1         1.0     0.454200      0.438700      0.012400     Biso  1.000000 H
   C3         1.0     0.498360      0.521020      0.941100     Biso  1.000000 C
   H1         1.0     0.497700      0.535400      0.901100     Biso  1.000000 H
   C4         1.0     0.303000      0.394580      0.901800     Biso  1.000000 C
   C5         1.0     0.280370      0.388640      0.971800     Biso  1.000000 C
   C6         1.0     0.254270      0.399890      0.977000     Biso  1.000000 C
   H2         1.0     0.249800      0.410700      0.934900     Biso  1.000000 H
   C7         1.0     0.234960      0.395270      0.043300     Biso  1.000000 C
   H3         1.0     0.217200      0.402700      0.044500     Biso  1.000000 H
   C8         1.0     0.240690      0.380260      0.107800     Biso  1.000000 C
   C7         1.0     0.265750      0.367470      0.101600     Biso  1.000000 C
   H3         1.0     0.269600      0.355800      0.143000     Biso  1.000000 H
   C6         1.0     0.285220      0.371950      0.033700     Biso  1.000000 C
   H2         1.0     0.301900      0.363300      0.031000     Biso  1.000000 H
   C9         1.0     0.221570      0.378040      0.180900     Biso  1.000000 C
   C10        1.0     0.186590      0.374950      0.181700     Biso  1.000000 C
   H4         1.0     0.174800      0.373500      0.135600     Biso  1.000000 H
   C6         1.0     0.321600      0.538600      0.717800     Biso  1.000000 C
   H2         1.0     0.303300      0.516200      0.697400     Biso  1.000000 H
   C7         1.0     0.317000      0.569000      0.717000     Biso  1.000000 C
   H3         1.0     0.295900      0.567400      0.694700     Biso  1.000000 H
   C7         1.0     0.376600      0.605700      0.775800     Biso  1.000000 C
   H3         1.0     0.395600      0.628400      0.793400     Biso  1.000000 H
   C6         1.0     0.381300      0.575190      0.776200     Biso  1.000000 C
   H2         1.0     0.403400      0.577600      0.794600     Biso  1.000000 H
   Zn1        1.0     0.598220      0.969920      0.840600     Biso  1.000000 Zn
   O1         1.0     0.511660      0.952020      0.838280     Biso  1.000000 O
   O1         1.0     0.594240      0.888330      0.843500     Biso  1.000000 O
   O1         1.0     0.611070      0.940910      0.906420     Biso  1.000000 O
   O1         1.0     0.643110      0.015050      0.813650     Biso  1.000000 O
   O1         1.0     0.566190      0.982460      0.898420     Biso  1.000000 O
   C1         1.0     0.532360      0.972580      0.890500     Biso  1.000000 C
   C2         1.0     0.515620      0.986870      0.947600     Biso  1.000000 C
   C3         1.0     0.536060      0.008870      0.007300     Biso  1.000000 C
   H1         1.0     0.561300      0.015500      0.012400     Biso  1.000000 H
   C3         1.0     0.478980      0.977340      0.941100     Biso  1.000000 C
   H1         1.0     0.464600      0.962300      0.901100     Biso  1.000000 H
   C4         1.0     0.605420      0.908420      0.901800     Biso  1.000000 C
   C5         1.0     0.611360      0.891730      0.971800     Biso  1.000000 C
   C6         1.0     0.600110      0.854380      0.977000     Biso  1.000000 C
   H2         1.0     0.589300      0.839100      0.934900     Biso  1.000000 H
   C7         1.0     0.604730      0.839690      0.043300     Biso  1.000000 C
   H3         1.0     0.597300      0.814500      0.044500     Biso  1.000000 H
   C8         1.0     0.619740      0.860430      0.107800     Biso  1.000000 C
   C7         1.0     0.632530      0.898280      0.101600     Biso  1.000000 C
   H3         1.0     0.644200      0.913800      0.143000     Biso  1.000000 H
   C6         1.0     0.628050      0.913270      0.033700     Biso  1.000000 C
   H2         1.0     0.636700      0.938600      0.031000     Biso  1.000000 H
   C9         1.0     0.621960      0.843530      0.180900     Biso  1.000000 C
   C10        1.0     0.625050      0.811640      0.181700     Biso  1.000000 C
   H4         1.0     0.626500      0.801300      0.135600     Biso  1.000000 H
   C7         1.0     0.641000      0.750100      0.313000     Biso  1.000000 C
   H3         1.0     0.649000      0.765200      0.356300     Biso  1.000000 H
   C6         1.0     0.642400      0.718100      0.310400     Biso  1.000000 C
   H2         1.0     0.653200      0.712700      0.351300     Biso  1.000000 H
   C6         1.0     0.615400      0.702500      0.186300     Biso  1.000000 C
   H2         1.0     0.607500      0.687500      0.142900     Biso  1.000000 H
   C7         1.0     0.614500      0.735400      0.190800     Biso  1.000000 C
   H3         1.0     0.604000      0.741000      0.149600     Biso  1.000000 H
   C6         1.0     0.461400      0.783000      0.717800     Biso  1.000000 C
   H2         1.0     0.483800      0.787100      0.697400     Biso  1.000000 H
   C7         1.0     0.431000      0.748000      0.717000     Biso  1.000000 C
   H3         1.0     0.432600      0.728500      0.694700     Biso  1.000000 H
   C7         1.0     0.394300      0.770900      0.775800     Biso  1.000000 C
   H3         1.0     0.371600      0.767200      0.793400     Biso  1.000000 H
   C6         1.0     0.424810      0.806110      0.776200     Biso  1.000000 C
   H2         1.0     0.422400      0.825800      0.794600     Biso  1.000000 H
   Zn1        1.0     0.030080      0.628300      0.840600     Biso  1.000000 Zn
   O1         1.0     0.047980      0.559640      0.838280     Biso  1.000000 O
   O1         1.0     0.111670      0.705910      0.843500     Biso  1.000000 O
   O1         1.0     0.059090      0.670160      0.906420     Biso  1.000000 O
   O1         1.0     0.984950      0.628060      0.813650     Biso  1.000000 O
   O1         1.0     0.017540      0.583730      0.898420     Biso  1.000000 O
   C1         1.0     0.027420      0.559780      0.890500     Biso  1.000000 C
   C2         1.0     0.013130      0.528750      0.947600     Biso  1.000000 C
   C3         1.0     0.991130      0.527190      0.007300     Biso  1.000000 C
   H1         1.0     0.984500      0.545800      0.012400     Biso  1.000000 H
   C3         1.0     0.022660      0.501640      0.941100     Biso  1.000000 C
   H1         1.0     0.037700      0.502300      0.901100     Biso  1.000000 H
   C4         1.0     0.091580      0.697000      0.901800     Biso  1.000000 C
   C5         1.0     0.108270      0.719630      0.971800     Biso  1.000000 C
   C6         1.0     0.145620      0.745730      0.977000     Biso  1.000000 C
   H2         1.0     0.160900      0.750200      0.934900     Biso  1.000000 H
   C7         1.0     0.160310      0.765040      0.043300     Biso  1.000000 C
   H3         1.0     0.185500      0.782800      0.044500     Biso  1.000000 H
   C8         1.0     0.139570      0.759310      0.107800     Biso  1.000000 C
   C7         1.0     0.101720      0.734250      0.101600     Biso  1.000000 C
   H3         1.0     0.086200      0.730400      0.143000     Biso  1.000000 H
   C6         1.0     0.086730      0.714780      0.033700     Biso  1.000000 C
   H2         1.0     0.061400      0.698100      0.031000     Biso  1.000000 H
   C9         1.0     0.156470      0.778430      0.180900     Biso  1.000000 C
   C10        1.0     0.188360      0.813410      0.181700     Biso  1.000000 C
   H4         1.0     0.198700      0.825200      0.135600     Biso  1.000000 H
   C6         1.0     0.217000      0.678400      0.717800     Biso  1.000000 C
   H2         1.0     0.212900      0.696700      0.697400     Biso  1.000000 H
   C7         1.0     0.252000      0.683000      0.717000     Biso  1.000000 C
   H3         1.0     0.271500      0.704100      0.694700     Biso  1.000000 H
   C7         1.0     0.229100      0.623400      0.775800     Biso  1.000000 C
   H3         1.0     0.232800      0.604400      0.793400     Biso  1.000000 H
   C6         1.0     0.193890      0.618700      0.776200     Biso  1.000000 C
   H2         1.0     0.174200      0.596600      0.794600     Biso  1.000000 H
   Zn1        1.0     0.408870      0.478570      0.750000     Biso  1.000000 Zn
   Zn1        1.0     0.321400      0.426880      0.750000     Biso  1.000000 Zn
   O2         1.0     0.368370      0.427120      0.750000     Biso  1.000000 O
   O1         1.0     0.330050      0.476510      0.750000     Biso  1.000000 O
   O1         1.0     0.391800      0.513710      0.750000     Biso  1.000000 O
   C4         1.0     0.371700      0.342630      0.750000     Biso  1.000000 C
   C4         1.0     0.358730      0.507470      0.750000     Biso  1.000000 C
   C5         1.0     0.354210      0.541550      0.750000     Biso  1.000000 C
   C8         1.0     0.344340      0.603190      0.750000     Biso  1.000000 C
   C9         1.0     0.338390      0.635960      0.750000     Biso  1.000000 C
   C10        1.0     0.302940      0.631070      0.750000     Biso  1.000000 C
   H4         1.0     0.282700      0.607100      0.750000     Biso  1.000000 H
   Zn1        1.0     0.521430      0.930300      0.750000     Biso  1.000000 Zn
   Zn1        1.0     0.573120      0.894520      0.750000     Biso  1.000000 Zn
   O2         1.0     0.572880      0.941250      0.750000     Biso  1.000000 O
   O1         1.0     0.523490      0.853540      0.750000     Biso  1.000000 O
   O1         1.0     0.486290      0.878090      0.750000     Biso  1.000000 O
   C4         1.0     0.657370      0.029070      0.750000     Biso  1.000000 C
   C4         1.0     0.492530      0.851260      0.750000     Biso  1.000000 C
   C5         1.0     0.458450      0.812660      0.750000     Biso  1.000000 C
   C8         1.0     0.396810      0.741150      0.750000     Biso  1.000000 C
   C9         1.0     0.364040      0.702430      0.750000     Biso  1.000000 C
   C10        1.0     0.368930      0.671870      0.750000     Biso  1.000000 C
   H4         1.0     0.392900      0.675600      0.750000     Biso  1.000000 H
   Zn1        1.0     0.069700      0.591130      0.750000     Biso  1.000000 Zn
   Zn1        1.0     0.105480      0.678600      0.750000     Biso  1.000000 Zn
   O2         1.0     0.058750      0.631630      0.750000     Biso  1.000000 O
   O1         1.0     0.146460      0.669950      0.750000     Biso  1.000000 O
   O1         1.0     0.121910      0.608200      0.750000     Biso  1.000000 O
   C4         1.0     0.970930      0.628300      0.750000     Biso  1.000000 C
   C4         1.0     0.148740      0.641270      0.750000     Biso  1.000000 C
   C5         1.0     0.187340      0.645790      0.750000     Biso  1.000000 C
   C8         1.0     0.258850      0.655660      0.750000     Biso  1.000000 C
   C9         1.0     0.297570      0.661610      0.750000     Biso  1.000000 C
   C10        1.0     0.328130      0.697060      0.750000     Biso  1.000000 C
   H4         1.0     0.324400      0.717300      0.750000     Biso  1.000000 H
   Zn1        1.0     0.591130      0.521430      0.250000     Biso  1.000000 Zn
   Zn1        1.0     0.678600      0.573120      0.250000     Biso  1.000000 Zn
   O2         1.0     0.631630      0.572880      0.250000     Biso  1.000000 O
   O1         1.0     0.669950      0.523490      0.250000     Biso  1.000000 O
   O1         1.0     0.608200      0.486290      0.250000     Biso  1.000000 O
   C4         1.0     0.628300      0.657370      0.250000     Biso  1.000000 C
   C4         1.0     0.641270      0.492530      0.250000     Biso  1.000000 C
   C5         1.0     0.645790      0.458450      0.250000     Biso  1.000000 C
   C8         1.0     0.655660      0.396810      0.250000     Biso  1.000000 C
   C9         1.0     0.661610      0.364040      0.250000     Biso  1.000000 C
   C10        1.0     0.697060      0.368930      0.250000     Biso  1.000000 C
   H4         1.0     0.717300      0.392900      0.250000     Biso  1.000000 H
   Zn1        1.0     0.478570      0.069700      0.250000     Biso  1.000000 Zn
   Zn1        1.0     0.426880      0.105480      0.250000     Biso  1.000000 Zn
   O2         1.0     0.427120      0.058750      0.250000     Biso  1.000000 O
   O1         1.0     0.476510      0.146460      0.250000     Biso  1.000000 O
   O1         1.0     0.513710      0.121910      0.250000     Biso  1.000000 O
   C4         1.0     0.342630      0.970930      0.250000     Biso  1.000000 C
   C4         1.0     0.507470      0.148740      0.250000     Biso  1.000000 C
   C5         1.0     0.541550      0.187340      0.250000     Biso  1.000000 C
   C8         1.0     0.603190      0.258850      0.250000     Biso  1.000000 C
   C9         1.0     0.635960      0.297570      0.250000     Biso  1.000000 C
   C10        1.0     0.631070      0.328130      0.250000     Biso  1.000000 C
   H4         1.0     0.607100      0.324400      0.250000     Biso  1.000000 H
   Zn1        1.0     0.930300      0.408870      0.250000     Biso  1.000000 Zn
   Zn1        1.0     0.894520      0.321400      0.250000     Biso  1.000000 Zn
   O2         1.0     0.941250      0.368370      0.250000     Biso  1.000000 O
   O1         1.0     0.853540      0.330050      0.250000     Biso  1.000000 O
   O1         1.0     0.878090      0.391800      0.250000     Biso  1.000000 O
   C4         1.0     0.029070      0.371700      0.250000     Biso  1.000000 C
   C4         1.0     0.851260      0.358730      0.250000     Biso  1.000000 C
   C5         1.0     0.812660      0.354210      0.250000     Biso  1.000000 C
   C8         1.0     0.741150      0.344340      0.250000     Biso  1.000000 C
   C9         1.0     0.702430      0.338390      0.250000     Biso  1.000000 C
   C10        1.0     0.671870      0.302940      0.250000     Biso  1.000000 C
   H4         1.0     0.675600      0.282700      0.250000     Biso  1.000000 H
   C10        1.0     0.238180      0.379400      0.250000     Biso  1.000000 C
   H4         1.0     0.261500      0.381300      0.250000     Biso  1.000000 H
   C9         1.0     0.168970      0.373900      0.250000     Biso  1.000000 C
   C8         1.0     0.132590      0.372600      0.250000     Biso  1.000000 C
   C5         1.0     0.064570      0.371220      0.250000     Biso  1.000000 C
   C10        1.0     0.620600      0.858780      0.250000     Biso  1.000000 C
   H4         1.0     0.618700      0.880200      0.250000     Biso  1.000000 H
   C9         1.0     0.626100      0.795070      0.250000     Biso  1.000000 C
   C8         1.0     0.627400      0.759990      0.250000     Biso  1.000000 C
   C5         1.0     0.628780      0.693350      0.250000     Biso  1.000000 C
   C10        1.0     0.141220      0.761820      0.250000     Biso  1.000000 C
   H4         1.0     0.119800      0.738500      0.250000     Biso  1.000000 H
   C9         1.0     0.204930      0.831030      0.250000     Biso  1.000000 C
   C8         1.0     0.240010      0.867410      0.250000     Biso  1.000000 C
   C5         1.0     0.306650      0.935430      0.250000     Biso  1.000000 C
   C10        1.0     0.761820      0.620600      0.750000     Biso  1.000000 C
   H4         1.0     0.738500      0.618700      0.750000     Biso  1.000000 H
   C9         1.0     0.831030      0.626100      0.750000     Biso  1.000000 C
   C8         1.0     0.867410      0.627400      0.750000     Biso  1.000000 C
   C5         1.0     0.935430      0.628780      0.750000     Biso  1.000000 C
   C10        1.0     0.379400      0.141220      0.750000     Biso  1.000000 C
   H4         1.0     0.381300      0.119800      0.750000     Biso  1.000000 H
   C9         1.0     0.373900      0.204930      0.750000     Biso  1.000000 C
   C8         1.0     0.372600      0.240010      0.750000     Biso  1.000000 C
   C5         1.0     0.371220      0.306650      0.750000     Biso  1.000000 C
   C10        1.0     0.858780      0.238180      0.750000     Biso  1.000000 C
   H4         1.0     0.880200      0.261500      0.750000     Biso  1.000000 H
   C9         1.0     0.795070      0.168970      0.750000     Biso  1.000000 C
   C8         1.0     0.759990      0.132590      0.750000     Biso  1.000000 C
   C5         1.0     0.693350      0.064570      0.750000     Biso  1.000000 C
