#======================================================================

# CRYSTAL DATA

#----------------------------------------------------------------------

data_VESTA_phase_1


_chemical_name_common                  ''
_cell_length_a                         32.77670
_cell_length_b                         32.77670
_cell_length_c                         32.77670
_cell_angle_alpha                      90
_cell_angle_beta                       90
_cell_angle_gamma                      90
_space_group_name_H-M_alt              'P 1'
_space_group_IT_number                 1

loop_
_space_group_symop_operation_xyz
   'x, y, z'

loop_
   _atom_site_label
   _atom_site_occupancy
   _atom_site_fract_x
   _atom_site_fract_y
   _atom_site_fract_z
   _atom_site_adp_type
   _atom_site_B_iso_or_equiv
   _atom_site_type_symbol
   C7         1.0     0.967000      0.717000      0.751600     Biso  1.000000 C
   C7         1.0     0.467000      0.217000      0.751600     Biso  1.000000 C
   C7         1.0     0.467000      0.717000      0.251600     Biso  1.000000 C
   C7         1.0     0.033000      0.783000      0.251600     Biso  1.000000 C
   C7         1.0     0.533000      0.783000      0.751600     Biso  1.000000 C
   C7         1.0     0.533000      0.283000      0.251600     Biso  1.000000 C
   C7         1.0     0.033000      0.217000      0.748400     Biso  1.000000 C
   C7         1.0     0.967000      0.283000      0.248400     Biso  1.000000 C
   C7         1.0     0.751600      0.967000      0.717000     Biso  1.000000 C
   C7         1.0     0.751600      0.467000      0.217000     Biso  1.000000 C
   C7         1.0     0.751600      0.033000      0.283000     Biso  1.000000 C
   C7         1.0     0.748400      0.533000      0.717000     Biso  1.000000 C
   C7         1.0     0.248400      0.033000      0.717000     Biso  1.000000 C
   C7         1.0     0.248400      0.533000      0.217000     Biso  1.000000 C
   C7         1.0     0.248400      0.967000      0.283000     Biso  1.000000 C
   C7         1.0     0.248400      0.467000      0.783000     Biso  1.000000 C
   C7         1.0     0.717000      0.751600      0.967000     Biso  1.000000 C
   C7         1.0     0.783000      0.751600      0.533000     Biso  1.000000 C
   C7         1.0     0.283000      0.751600      0.033000     Biso  1.000000 C
   C7         1.0     0.217000      0.248400      0.533000     Biso  1.000000 C
   C7         1.0     0.717000      0.248400      0.033000     Biso  1.000000 C
   C7         1.0     0.783000      0.248400      0.467000     Biso  1.000000 C
   C7         1.0     0.283000      0.748400      0.467000     Biso  1.000000 C
   C7         1.0     0.283000      0.248400      0.967000     Biso  1.000000 C
   C7         1.0     0.717000      0.967000      0.248400     Biso  1.000000 C
   C7         1.0     0.283000      0.033000      0.248400     Biso  1.000000 C
   C7         1.0     0.283000      0.533000      0.748400     Biso  1.000000 C
   C7         1.0     0.717000      0.033000      0.751600     Biso  1.000000 C
   C7         1.0     0.717000      0.533000      0.251600     Biso  1.000000 C
   C7         1.0     0.783000      0.467000      0.751600     Biso  1.000000 C
   C7         1.0     0.283000      0.967000      0.751600     Biso  1.000000 C
   C7         1.0     0.283000      0.467000      0.251600     Biso  1.000000 C
   C7         1.0     0.967000      0.251600      0.783000     Biso  1.000000 C
   C7         1.0     0.033000      0.751600      0.717000     Biso  1.000000 C
   C7         1.0     0.533000      0.251600      0.717000     Biso  1.000000 C
   C7         1.0     0.533000      0.751600      0.217000     Biso  1.000000 C
   C7         1.0     0.033000      0.248400      0.283000     Biso  1.000000 C
   C7         1.0     0.967000      0.748400      0.217000     Biso  1.000000 C
   C7         1.0     0.467000      0.748400      0.717000     Biso  1.000000 C
   C7         1.0     0.467000      0.248400      0.217000     Biso  1.000000 C
   C7         1.0     0.751600      0.717000      0.033000     Biso  1.000000 C
   C7         1.0     0.251600      0.283000      0.467000     Biso  1.000000 C
   C7         1.0     0.751600      0.283000      0.967000     Biso  1.000000 C
   C7         1.0     0.748400      0.717000      0.467000     Biso  1.000000 C
   C7         1.0     0.248400      0.717000      0.967000     Biso  1.000000 C
   C7         1.0     0.748400      0.283000      0.533000     Biso  1.000000 C
   C7         1.0     0.248400      0.783000      0.533000     Biso  1.000000 C
   C7         1.0     0.248400      0.283000      0.033000     Biso  1.000000 C
   C7         1.0     0.033000      0.783000      0.748400     Biso  1.000000 C
   C7         1.0     0.533000      0.783000      0.248400     Biso  1.000000 C
   C7         1.0     0.533000      0.283000      0.748400     Biso  1.000000 C
   C7         1.0     0.967000      0.717000      0.248400     Biso  1.000000 C
   C7         1.0     0.467000      0.217000      0.248400     Biso  1.000000 C
   C7         1.0     0.467000      0.717000      0.748400     Biso  1.000000 C
   C7         1.0     0.967000      0.283000      0.751600     Biso  1.000000 C
   C7         1.0     0.033000      0.217000      0.251600     Biso  1.000000 C
   C7         1.0     0.748400      0.033000      0.783000     Biso  1.000000 C
   C7         1.0     0.748400      0.533000      0.283000     Biso  1.000000 C
   C7         1.0     0.748400      0.967000      0.217000     Biso  1.000000 C
   C7         1.0     0.251600      0.967000      0.783000     Biso  1.000000 C
   C7         1.0     0.251600      0.467000      0.283000     Biso  1.000000 C
   C7         1.0     0.751600      0.467000      0.783000     Biso  1.000000 C
   C7         1.0     0.251600      0.033000      0.217000     Biso  1.000000 C
   C7         1.0     0.251600      0.533000      0.717000     Biso  1.000000 C
   C7         1.0     0.783000      0.748400      0.033000     Biso  1.000000 C
   C7         1.0     0.217000      0.748400      0.967000     Biso  1.000000 C
   C7         1.0     0.717000      0.748400      0.467000     Biso  1.000000 C
   C7         1.0     0.783000      0.251600      0.967000     Biso  1.000000 C
   C7         1.0     0.283000      0.251600      0.467000     Biso  1.000000 C
   C7         1.0     0.217000      0.251600      0.033000     Biso  1.000000 C
   C7         1.0     0.217000      0.751600      0.533000     Biso  1.000000 C
   C7         1.0     0.717000      0.251600      0.533000     Biso  1.000000 C
   C7         1.0     0.783000      0.033000      0.251600     Biso  1.000000 C
   C7         1.0     0.217000      0.967000      0.251600     Biso  1.000000 C
   C7         1.0     0.217000      0.467000      0.751600     Biso  1.000000 C
   C7         1.0     0.783000      0.967000      0.748400     Biso  1.000000 C
   C7         1.0     0.783000      0.467000      0.248400     Biso  1.000000 C
   C7         1.0     0.217000      0.033000      0.748400     Biso  1.000000 C
   C7         1.0     0.217000      0.533000      0.248400     Biso  1.000000 C
   C7         1.0     0.717000      0.533000      0.748400     Biso  1.000000 C
   C7         1.0     0.033000      0.248400      0.717000     Biso  1.000000 C
   C7         1.0     0.967000      0.748400      0.783000     Biso  1.000000 C
   C7         1.0     0.467000      0.748400      0.283000     Biso  1.000000 C
   C7         1.0     0.467000      0.248400      0.783000     Biso  1.000000 C
   C7         1.0     0.967000      0.251600      0.217000     Biso  1.000000 C
   C7         1.0     0.033000      0.751600      0.283000     Biso  1.000000 C
   C7         1.0     0.533000      0.251600      0.283000     Biso  1.000000 C
   C7         1.0     0.533000      0.751600      0.783000     Biso  1.000000 C
   C7         1.0     0.748400      0.783000      0.967000     Biso  1.000000 C
   C7         1.0     0.748400      0.217000      0.033000     Biso  1.000000 C
   C7         1.0     0.248400      0.217000      0.533000     Biso  1.000000 C
   C7         1.0     0.251600      0.783000      0.033000     Biso  1.000000 C
   C7         1.0     0.751600      0.783000      0.533000     Biso  1.000000 C
   C7         1.0     0.251600      0.217000      0.967000     Biso  1.000000 C
   C7         1.0     0.251600      0.717000      0.467000     Biso  1.000000 C
   C7         1.0     0.751600      0.217000      0.467000     Biso  1.000000 C
   Zr1        1.0     0.000000      0.000000      0.075500     Biso  1.000000 Zr
   Zr1        1.0     0.000000      0.500000      0.575500     Biso  1.000000 Zr
   Zr1        1.0     0.500000      0.000000      0.575500     Biso  1.000000 Zr
   Zr1        1.0     0.500000      0.500000      0.075500     Biso  1.000000 Zr
   Zr1        1.0     0.000000      0.000000      0.924500     Biso  1.000000 Zr
   Zr1        1.0     0.000000      0.500000      0.424500     Biso  1.000000 Zr
   Zr1        1.0     0.500000      0.000000      0.424500     Biso  1.000000 Zr
   Zr1        1.0     0.500000      0.500000      0.924500     Biso  1.000000 Zr
   Zr1        1.0     0.075500      0.000000      0.000000     Biso  1.000000 Zr
   Zr1        1.0     0.075500      0.500000      0.500000     Biso  1.000000 Zr
   Zr1        1.0     0.575500      0.000000      0.500000     Biso  1.000000 Zr
   Zr1        1.0     0.575500      0.500000      0.000000     Biso  1.000000 Zr
   Zr1        1.0     0.924500      0.000000      0.000000     Biso  1.000000 Zr
   Zr1        1.0     0.924500      0.500000      0.500000     Biso  1.000000 Zr
   Zr1        1.0     0.424500      0.000000      0.500000     Biso  1.000000 Zr
   Zr1        1.0     0.424500      0.500000      0.000000     Biso  1.000000 Zr
   Zr1        1.0     0.000000      0.075500      0.000000     Biso  1.000000 Zr
   Zr1        1.0     0.000000      0.575500      0.500000     Biso  1.000000 Zr
   Zr1        1.0     0.500000      0.075500      0.500000     Biso  1.000000 Zr
   Zr1        1.0     0.500000      0.575500      0.000000     Biso  1.000000 Zr
   Zr1        1.0     0.000000      0.924500      0.000000     Biso  1.000000 Zr
   Zr1        1.0     0.000000      0.424500      0.500000     Biso  1.000000 Zr
   Zr1        1.0     0.500000      0.924500      0.500000     Biso  1.000000 Zr
   Zr1        1.0     0.500000      0.424500      0.000000     Biso  1.000000 Zr
   O2         1.0     0.037140      0.037140      0.037140     Biso  1.000000 O
   O2         1.0     0.037140      0.537140      0.537140     Biso  1.000000 O
   O2         1.0     0.537140      0.037140      0.537140     Biso  1.000000 O
   O2         1.0     0.537140      0.537140      0.037140     Biso  1.000000 O
   O2         1.0     0.962860      0.962860      0.037140     Biso  1.000000 O
   O2         1.0     0.962860      0.462860      0.537140     Biso  1.000000 O
   O2         1.0     0.462860      0.962860      0.537140     Biso  1.000000 O
   O2         1.0     0.462860      0.462860      0.037140     Biso  1.000000 O
   O2         1.0     0.962860      0.037140      0.962860     Biso  1.000000 O
   O2         1.0     0.962860      0.537140      0.462860     Biso  1.000000 O
   O2         1.0     0.462860      0.037140      0.462860     Biso  1.000000 O
   O2         1.0     0.462860      0.537140      0.962860     Biso  1.000000 O
   O2         1.0     0.037140      0.962860      0.962860     Biso  1.000000 O
   O2         1.0     0.037140      0.462860      0.462860     Biso  1.000000 O
   O2         1.0     0.537140      0.962860      0.462860     Biso  1.000000 O
   O2         1.0     0.537140      0.462860      0.962860     Biso  1.000000 O
   O2         1.0     0.037140      0.037140      0.962860     Biso  1.000000 O
   O2         1.0     0.037140      0.537140      0.462860     Biso  1.000000 O
   O2         1.0     0.537140      0.037140      0.462860     Biso  1.000000 O
   O2         1.0     0.537140      0.537140      0.962860     Biso  1.000000 O
   O2         1.0     0.962860      0.962860      0.962860     Biso  1.000000 O
   O2         1.0     0.962860      0.462860      0.462860     Biso  1.000000 O
   O2         1.0     0.462860      0.962860      0.462860     Biso  1.000000 O
   O2         1.0     0.462860      0.462860      0.962860     Biso  1.000000 O
   O2         1.0     0.037140      0.962860      0.037140     Biso  1.000000 O
   O2         1.0     0.037140      0.462860      0.537140     Biso  1.000000 O
   O2         1.0     0.537140      0.962860      0.537140     Biso  1.000000 O
   O2         1.0     0.537140      0.462860      0.037140     Biso  1.000000 O
   O2         1.0     0.962860      0.037140      0.037140     Biso  1.000000 O
   O2         1.0     0.962860      0.537140      0.537140     Biso  1.000000 O
   O2         1.0     0.462860      0.037140      0.537140     Biso  1.000000 O
   O2         1.0     0.462860      0.537140      0.037140     Biso  1.000000 O
   O1         1.0     0.000000      0.059290      0.108320     Biso  1.000000 O
   C3         1.0     0.000000      0.168080      0.116960     Biso  1.000000 C
   H1         1.0     0.000000      0.176960      0.083330     Biso  1.000000 H
   C4         1.0     0.000000      0.197990      0.147300     Biso  1.000000 C
   H2         1.0     0.000000      0.231650      0.138540     Biso  1.000000 H
   O1         1.0     0.000000      0.559290      0.608320     Biso  1.000000 O
   C3         1.0     0.000000      0.668080      0.616960     Biso  1.000000 C
   H1         1.0     0.000000      0.676960      0.583330     Biso  1.000000 H
   C4         1.0     0.000000      0.697990      0.647300     Biso  1.000000 C
   H2         1.0     0.000000      0.731650      0.638540     Biso  1.000000 H
   O1         1.0     0.500000      0.059290      0.608320     Biso  1.000000 O
   C3         1.0     0.500000      0.168080      0.616960     Biso  1.000000 C
   H1         1.0     0.500000      0.176960      0.583330     Biso  1.000000 H
   C4         1.0     0.500000      0.197990      0.647300     Biso  1.000000 C
   H2         1.0     0.500000      0.231650      0.638540     Biso  1.000000 H
   O1         1.0     0.500000      0.559290      0.108320     Biso  1.000000 O
   C3         1.0     0.500000      0.668080      0.116960     Biso  1.000000 C
   H1         1.0     0.500000      0.676960      0.083330     Biso  1.000000 H
   C4         1.0     0.500000      0.697990      0.147300     Biso  1.000000 C
   H2         1.0     0.500000      0.731650      0.138540     Biso  1.000000 H
   O1         1.0     0.000000      0.940710      0.108320     Biso  1.000000 O
   C3         1.0     0.000000      0.831920      0.116960     Biso  1.000000 C
   H1         1.0     0.000000      0.823040      0.083330     Biso  1.000000 H
   C4         1.0     0.000000      0.802010      0.147300     Biso  1.000000 C
   H2         1.0     0.000000      0.768350      0.138540     Biso  1.000000 H
   O1         1.0     0.000000      0.440710      0.608320     Biso  1.000000 O
   C3         1.0     0.000000      0.331920      0.616960     Biso  1.000000 C
   H1         1.0     0.000000      0.323040      0.583330     Biso  1.000000 H
   C4         1.0     0.000000      0.302010      0.647300     Biso  1.000000 C
   H2         1.0     0.000000      0.268350      0.638540     Biso  1.000000 H
   O1         1.0     0.500000      0.940710      0.608320     Biso  1.000000 O
   C3         1.0     0.500000      0.831920      0.616960     Biso  1.000000 C
   H1         1.0     0.500000      0.823040      0.583330     Biso  1.000000 H
   C4         1.0     0.500000      0.802010      0.647300     Biso  1.000000 C
   H2         1.0     0.500000      0.768350      0.638540     Biso  1.000000 H
   O1         1.0     0.500000      0.440710      0.108320     Biso  1.000000 O
   C3         1.0     0.500000      0.331920      0.116960     Biso  1.000000 C
   H1         1.0     0.500000      0.323040      0.083330     Biso  1.000000 H
   C4         1.0     0.500000      0.302010      0.147300     Biso  1.000000 C
   H2         1.0     0.500000      0.268350      0.138540     Biso  1.000000 H
   O1         1.0     0.000000      0.059290      0.891680     Biso  1.000000 O
   C3         1.0     0.000000      0.168080      0.883040     Biso  1.000000 C
   H1         1.0     0.000000      0.176960      0.916670     Biso  1.000000 H
   C4         1.0     0.000000      0.197990      0.852700     Biso  1.000000 C
   H2         1.0     0.000000      0.231650      0.861460     Biso  1.000000 H
   O1         1.0     0.000000      0.559290      0.391680     Biso  1.000000 O
   C3         1.0     0.000000      0.668080      0.383040     Biso  1.000000 C
   H1         1.0     0.000000      0.676960      0.416670     Biso  1.000000 H
   C4         1.0     0.000000      0.697990      0.352700     Biso  1.000000 C
   H2         1.0     0.000000      0.731650      0.361460     Biso  1.000000 H
   O1         1.0     0.500000      0.059290      0.391680     Biso  1.000000 O
   C3         1.0     0.500000      0.168080      0.383040     Biso  1.000000 C
   H1         1.0     0.500000      0.176960      0.416670     Biso  1.000000 H
   C4         1.0     0.500000      0.197990      0.352700     Biso  1.000000 C
   H2         1.0     0.500000      0.231650      0.361460     Biso  1.000000 H
   O1         1.0     0.500000      0.559290      0.891680     Biso  1.000000 O
   C3         1.0     0.500000      0.668080      0.883040     Biso  1.000000 C
   H1         1.0     0.500000      0.676960      0.916670     Biso  1.000000 H
   C4         1.0     0.500000      0.697990      0.852700     Biso  1.000000 C
   H2         1.0     0.500000      0.731650      0.861460     Biso  1.000000 H
   O1         1.0     0.000000      0.940710      0.891680     Biso  1.000000 O
   C3         1.0     0.000000      0.831920      0.883040     Biso  1.000000 C
   H1         1.0     0.000000      0.823040      0.916670     Biso  1.000000 H
   C4         1.0     0.000000      0.802010      0.852700     Biso  1.000000 C
   H2         1.0     0.000000      0.768350      0.861460     Biso  1.000000 H
   O1         1.0     0.000000      0.440710      0.391680     Biso  1.000000 O
   C3         1.0     0.000000      0.331920      0.383040     Biso  1.000000 C
   H1         1.0     0.000000      0.323040      0.416670     Biso  1.000000 H
   C4         1.0     0.000000      0.302010      0.352700     Biso  1.000000 C
   H2         1.0     0.000000      0.268350      0.361460     Biso  1.000000 H
   O1         1.0     0.500000      0.940710      0.391680     Biso  1.000000 O
   C3         1.0     0.500000      0.831920      0.383040     Biso  1.000000 C
   H1         1.0     0.500000      0.823040      0.416670     Biso  1.000000 H
   C4         1.0     0.500000      0.802010      0.352700     Biso  1.000000 C
   H2         1.0     0.500000      0.768350      0.361460     Biso  1.000000 H
   O1         1.0     0.500000      0.440710      0.891680     Biso  1.000000 O
   C3         1.0     0.500000      0.331920      0.883040     Biso  1.000000 C
   H1         1.0     0.500000      0.323040      0.916670     Biso  1.000000 H
   C4         1.0     0.500000      0.302010      0.852700     Biso  1.000000 C
   H2         1.0     0.500000      0.268350      0.861460     Biso  1.000000 H
   O1         1.0     0.108320      0.000000      0.059290     Biso  1.000000 O
   C3         1.0     0.116960      0.000000      0.168080     Biso  1.000000 C
   H1         1.0     0.083330      0.000000      0.176960     Biso  1.000000 H
   C4         1.0     0.147300      0.000000      0.197990     Biso  1.000000 C
   H2         1.0     0.138540      0.000000      0.231650     Biso  1.000000 H
   O1         1.0     0.108320      0.500000      0.559290     Biso  1.000000 O
   C3         1.0     0.116960      0.500000      0.668080     Biso  1.000000 C
   H1         1.0     0.083330      0.500000      0.676960     Biso  1.000000 H
   C4         1.0     0.147300      0.500000      0.697990     Biso  1.000000 C
   H2         1.0     0.138540      0.500000      0.731650     Biso  1.000000 H
   O1         1.0     0.608320      0.000000      0.559290     Biso  1.000000 O
   C3         1.0     0.616960      0.000000      0.668080     Biso  1.000000 C
   H1         1.0     0.583330      0.000000      0.676960     Biso  1.000000 H
   C4         1.0     0.647300      0.000000      0.697990     Biso  1.000000 C
   H2         1.0     0.638540      0.000000      0.731650     Biso  1.000000 H
   O1         1.0     0.608320      0.500000      0.059290     Biso  1.000000 O
   C3         1.0     0.616960      0.500000      0.168080     Biso  1.000000 C
   H1         1.0     0.583330      0.500000      0.176960     Biso  1.000000 H
   C4         1.0     0.647300      0.500000      0.197990     Biso  1.000000 C
   H2         1.0     0.638540      0.500000      0.231650     Biso  1.000000 H
   O1         1.0     0.108320      0.000000      0.940710     Biso  1.000000 O
   C3         1.0     0.116960      0.000000      0.831920     Biso  1.000000 C
   H1         1.0     0.083330      0.000000      0.823040     Biso  1.000000 H
   C4         1.0     0.147300      0.000000      0.802010     Biso  1.000000 C
   H2         1.0     0.138540      0.000000      0.768350     Biso  1.000000 H
   O1         1.0     0.108320      0.500000      0.440710     Biso  1.000000 O
   C3         1.0     0.116960      0.500000      0.331920     Biso  1.000000 C
   H1         1.0     0.083330      0.500000      0.323040     Biso  1.000000 H
   C4         1.0     0.147300      0.500000      0.302010     Biso  1.000000 C
   H2         1.0     0.138540      0.500000      0.268350     Biso  1.000000 H
   O1         1.0     0.608320      0.000000      0.440710     Biso  1.000000 O
   C3         1.0     0.616960      0.000000      0.331920     Biso  1.000000 C
   H1         1.0     0.583330      0.000000      0.323040     Biso  1.000000 H
   C4         1.0     0.647300      0.000000      0.302010     Biso  1.000000 C
   H2         1.0     0.638540      0.000000      0.268350     Biso  1.000000 H
   O1         1.0     0.608320      0.500000      0.940710     Biso  1.000000 O
   C3         1.0     0.616960      0.500000      0.831920     Biso  1.000000 C
   H1         1.0     0.583330      0.500000      0.823040     Biso  1.000000 H
   C4         1.0     0.647300      0.500000      0.802010     Biso  1.000000 C
   H2         1.0     0.638540      0.500000      0.768350     Biso  1.000000 H
   O1         1.0     0.891680      0.000000      0.059290     Biso  1.000000 O
   C3         1.0     0.883040      0.000000      0.168080     Biso  1.000000 C
   H1         1.0     0.916670      0.000000      0.176960     Biso  1.000000 H
   C4         1.0     0.852700      0.000000      0.197990     Biso  1.000000 C
   H2         1.0     0.861460      0.000000      0.231650     Biso  1.000000 H
   O1         1.0     0.891680      0.500000      0.559290     Biso  1.000000 O
   C3         1.0     0.883040      0.500000      0.668080     Biso  1.000000 C
   H1         1.0     0.916670      0.500000      0.676960     Biso  1.000000 H
   C4         1.0     0.852700      0.500000      0.697990     Biso  1.000000 C
   H2         1.0     0.861460      0.500000      0.731650     Biso  1.000000 H
   O1         1.0     0.391680      0.000000      0.559290     Biso  1.000000 O
   C3         1.0     0.383040      0.000000      0.668080     Biso  1.000000 C
   H1         1.0     0.416670      0.000000      0.676960     Biso  1.000000 H
   C4         1.0     0.352700      0.000000      0.697990     Biso  1.000000 C
   H2         1.0     0.361460      0.000000      0.731650     Biso  1.000000 H
   O1         1.0     0.391680      0.500000      0.059290     Biso  1.000000 O
   C3         1.0     0.383040      0.500000      0.168080     Biso  1.000000 C
   H1         1.0     0.416670      0.500000      0.176960     Biso  1.000000 H
   C4         1.0     0.352700      0.500000      0.197990     Biso  1.000000 C
   H2         1.0     0.361460      0.500000      0.231650     Biso  1.000000 H
   O1         1.0     0.891680      0.000000      0.940710     Biso  1.000000 O
   C3         1.0     0.883040      0.000000      0.831920     Biso  1.000000 C
   H1         1.0     0.916670      0.000000      0.823040     Biso  1.000000 H
   C4         1.0     0.852700      0.000000      0.802010     Biso  1.000000 C
   H2         1.0     0.861460      0.000000      0.768350     Biso  1.000000 H
   O1         1.0     0.891680      0.500000      0.440710     Biso  1.000000 O
   C3         1.0     0.883040      0.500000      0.331920     Biso  1.000000 C
   H1         1.0     0.916670      0.500000      0.323040     Biso  1.000000 H
   C4         1.0     0.852700      0.500000      0.302010     Biso  1.000000 C
   H2         1.0     0.861460      0.500000      0.268350     Biso  1.000000 H
   O1         1.0     0.391680      0.000000      0.440710     Biso  1.000000 O
   C3         1.0     0.383040      0.000000      0.331920     Biso  1.000000 C
   H1         1.0     0.416670      0.000000      0.323040     Biso  1.000000 H
   C4         1.0     0.352700      0.000000      0.302010     Biso  1.000000 C
   H2         1.0     0.361460      0.000000      0.268350     Biso  1.000000 H
   O1         1.0     0.391680      0.500000      0.940710     Biso  1.000000 O
   C3         1.0     0.383040      0.500000      0.831920     Biso  1.000000 C
   H1         1.0     0.416670      0.500000      0.823040     Biso  1.000000 H
   C4         1.0     0.352700      0.500000      0.802010     Biso  1.000000 C
   H2         1.0     0.361460      0.500000      0.768350     Biso  1.000000 H
   O1         1.0     0.059290      0.108320      0.000000     Biso  1.000000 O
   C3         1.0     0.168080      0.116960      0.000000     Biso  1.000000 C
   H1         1.0     0.176960      0.083330      0.000000     Biso  1.000000 H
   C4         1.0     0.197990      0.147300      0.000000     Biso  1.000000 C
   H2         1.0     0.231650      0.138540      0.000000     Biso  1.000000 H
   O1         1.0     0.059290      0.608320      0.500000     Biso  1.000000 O
   C3         1.0     0.168080      0.616960      0.500000     Biso  1.000000 C
   H1         1.0     0.176960      0.583330      0.500000     Biso  1.000000 H
   C4         1.0     0.197990      0.647300      0.500000     Biso  1.000000 C
   H2         1.0     0.231650      0.638540      0.500000     Biso  1.000000 H
   O1         1.0     0.559290      0.108320      0.500000     Biso  1.000000 O
   C3         1.0     0.668080      0.116960      0.500000     Biso  1.000000 C
   H1         1.0     0.676960      0.083330      0.500000     Biso  1.000000 H
   C4         1.0     0.697990      0.147300      0.500000     Biso  1.000000 C
   H2         1.0     0.731650      0.138540      0.500000     Biso  1.000000 H
   O1         1.0     0.559290      0.608320      0.000000     Biso  1.000000 O
   C3         1.0     0.668080      0.616960      0.000000     Biso  1.000000 C
   H1         1.0     0.676960      0.583330      0.000000     Biso  1.000000 H
   C4         1.0     0.697990      0.647300      0.000000     Biso  1.000000 C
   H2         1.0     0.731650      0.638540      0.000000     Biso  1.000000 H
   O1         1.0     0.940710      0.108320      0.000000     Biso  1.000000 O
   C3         1.0     0.831920      0.116960      0.000000     Biso  1.000000 C
   H1         1.0     0.823040      0.083330      0.000000     Biso  1.000000 H
   C4         1.0     0.802010      0.147300      0.000000     Biso  1.000000 C
   H2         1.0     0.768350      0.138540      0.000000     Biso  1.000000 H
   O1         1.0     0.940710      0.608320      0.500000     Biso  1.000000 O
   C3         1.0     0.831920      0.616960      0.500000     Biso  1.000000 C
   H1         1.0     0.823040      0.583330      0.500000     Biso  1.000000 H
   C4         1.0     0.802010      0.647300      0.500000     Biso  1.000000 C
   H2         1.0     0.768350      0.638540      0.500000     Biso  1.000000 H
   O1         1.0     0.440710      0.108320      0.500000     Biso  1.000000 O
   C3         1.0     0.331920      0.116960      0.500000     Biso  1.000000 C
   H1         1.0     0.323040      0.083330      0.500000     Biso  1.000000 H
   C4         1.0     0.302010      0.147300      0.500000     Biso  1.000000 C
   H2         1.0     0.268350      0.138540      0.500000     Biso  1.000000 H
   O1         1.0     0.440710      0.608320      0.000000     Biso  1.000000 O
   C3         1.0     0.331920      0.616960      0.000000     Biso  1.000000 C
   H1         1.0     0.323040      0.583330      0.000000     Biso  1.000000 H
   C4         1.0     0.302010      0.647300      0.000000     Biso  1.000000 C
   H2         1.0     0.268350      0.638540      0.000000     Biso  1.000000 H
   O1         1.0     0.059290      0.891680      0.000000     Biso  1.000000 O
   C3         1.0     0.168080      0.883040      0.000000     Biso  1.000000 C
   H1         1.0     0.176960      0.916670      0.000000     Biso  1.000000 H
   C4         1.0     0.197990      0.852700      0.000000     Biso  1.000000 C
   H2         1.0     0.231650      0.861460      0.000000     Biso  1.000000 H
   O1         1.0     0.059290      0.391680      0.500000     Biso  1.000000 O
   C3         1.0     0.168080      0.383040      0.500000     Biso  1.000000 C
   H1         1.0     0.176960      0.416670      0.500000     Biso  1.000000 H
   C4         1.0     0.197990      0.352700      0.500000     Biso  1.000000 C
   H2         1.0     0.231650      0.361460      0.500000     Biso  1.000000 H
   O1         1.0     0.559290      0.891680      0.500000     Biso  1.000000 O
   C3         1.0     0.668080      0.883040      0.500000     Biso  1.000000 C
   H1         1.0     0.676960      0.916670      0.500000     Biso  1.000000 H
   C4         1.0     0.697990      0.852700      0.500000     Biso  1.000000 C
   H2         1.0     0.731650      0.861460      0.500000     Biso  1.000000 H
   O1         1.0     0.559290      0.391680      0.000000     Biso  1.000000 O
   C3         1.0     0.668080      0.383040      0.000000     Biso  1.000000 C
   H1         1.0     0.676960      0.416670      0.000000     Biso  1.000000 H
   C4         1.0     0.697990      0.352700      0.000000     Biso  1.000000 C
   H2         1.0     0.731650      0.361460      0.000000     Biso  1.000000 H
   O1         1.0     0.940710      0.891680      0.000000     Biso  1.000000 O
   C3         1.0     0.831920      0.883040      0.000000     Biso  1.000000 C
   H1         1.0     0.823040      0.916670      0.000000     Biso  1.000000 H
   C4         1.0     0.802010      0.852700      0.000000     Biso  1.000000 C
   H2         1.0     0.768350      0.861460      0.000000     Biso  1.000000 H
   O1         1.0     0.940710      0.391680      0.500000     Biso  1.000000 O
   C3         1.0     0.831920      0.383040      0.500000     Biso  1.000000 C
   H1         1.0     0.823040      0.416670      0.500000     Biso  1.000000 H
   C4         1.0     0.802010      0.352700      0.500000     Biso  1.000000 C
   H2         1.0     0.768350      0.361460      0.500000     Biso  1.000000 H
   O1         1.0     0.440710      0.891680      0.500000     Biso  1.000000 O
   C3         1.0     0.331920      0.883040      0.500000     Biso  1.000000 C
   H1         1.0     0.323040      0.916670      0.500000     Biso  1.000000 H
   C4         1.0     0.302010      0.852700      0.500000     Biso  1.000000 C
   H2         1.0     0.268350      0.861460      0.500000     Biso  1.000000 H
   O1         1.0     0.440710      0.391680      0.000000     Biso  1.000000 O
   C3         1.0     0.331920      0.383040      0.000000     Biso  1.000000 C
   H1         1.0     0.323040      0.416670      0.000000     Biso  1.000000 H
   C4         1.0     0.302010      0.352700      0.000000     Biso  1.000000 C
   H2         1.0     0.268350      0.361460      0.000000     Biso  1.000000 H
   O1         1.0     0.059290      0.000000      0.891680     Biso  1.000000 O
   C3         1.0     0.168080      0.000000      0.883040     Biso  1.000000 C
   H1         1.0     0.176960      0.000000      0.916670     Biso  1.000000 H
   C4         1.0     0.197990      0.000000      0.852700     Biso  1.000000 C
   H2         1.0     0.231650      0.000000      0.861460     Biso  1.000000 H
   O1         1.0     0.059290      0.500000      0.391680     Biso  1.000000 O
   C3         1.0     0.168080      0.500000      0.383040     Biso  1.000000 C
   H1         1.0     0.176960      0.500000      0.416670     Biso  1.000000 H
   C4         1.0     0.197990      0.500000      0.352700     Biso  1.000000 C
   H2         1.0     0.231650      0.500000      0.361460     Biso  1.000000 H
   O1         1.0     0.559290      0.000000      0.391680     Biso  1.000000 O
   C3         1.0     0.668080      0.000000      0.383040     Biso  1.000000 C
   H1         1.0     0.676960      0.000000      0.416670     Biso  1.000000 H
   C4         1.0     0.697990      0.000000      0.352700     Biso  1.000000 C
   H2         1.0     0.731650      0.000000      0.361460     Biso  1.000000 H
   O1         1.0     0.559290      0.500000      0.891680     Biso  1.000000 O
   C3         1.0     0.668080      0.500000      0.883040     Biso  1.000000 C
   H1         1.0     0.676960      0.500000      0.916670     Biso  1.000000 H
   C4         1.0     0.697990      0.500000      0.852700     Biso  1.000000 C
   H2         1.0     0.731650      0.500000      0.861460     Biso  1.000000 H
   O1         1.0     0.940710      0.000000      0.891680     Biso  1.000000 O
   C3         1.0     0.831920      0.000000      0.883040     Biso  1.000000 C
   H1         1.0     0.823040      0.000000      0.916670     Biso  1.000000 H
   C4         1.0     0.802010      0.000000      0.852700     Biso  1.000000 C
   H2         1.0     0.768350      0.000000      0.861460     Biso  1.000000 H
   O1         1.0     0.940710      0.500000      0.391680     Biso  1.000000 O
   C3         1.0     0.831920      0.500000      0.383040     Biso  1.000000 C
   H1         1.0     0.823040      0.500000      0.416670     Biso  1.000000 H
   C4         1.0     0.802010      0.500000      0.352700     Biso  1.000000 C
   H2         1.0     0.768350      0.500000      0.361460     Biso  1.000000 H
   O1         1.0     0.440710      0.000000      0.391680     Biso  1.000000 O
   C3         1.0     0.331920      0.000000      0.383040     Biso  1.000000 C
   H1         1.0     0.323040      0.000000      0.416670     Biso  1.000000 H
   C4         1.0     0.302010      0.000000      0.352700     Biso  1.000000 C
   H2         1.0     0.268350      0.000000      0.361460     Biso  1.000000 H
   O1         1.0     0.440710      0.500000      0.891680     Biso  1.000000 O
   C3         1.0     0.331920      0.500000      0.883040     Biso  1.000000 C
   H1         1.0     0.323040      0.500000      0.916670     Biso  1.000000 H
   C4         1.0     0.302010      0.500000      0.852700     Biso  1.000000 C
   H2         1.0     0.268350      0.500000      0.861460     Biso  1.000000 H
   O1         1.0     0.059290      0.000000      0.108320     Biso  1.000000 O
   C3         1.0     0.168080      0.000000      0.116960     Biso  1.000000 C
   H1         1.0     0.176960      0.000000      0.083330     Biso  1.000000 H
   C4         1.0     0.197990      0.000000      0.147300     Biso  1.000000 C
   H2         1.0     0.231650      0.000000      0.138540     Biso  1.000000 H
   O1         1.0     0.059290      0.500000      0.608320     Biso  1.000000 O
   C3         1.0     0.168080      0.500000      0.616960     Biso  1.000000 C
   H1         1.0     0.176960      0.500000      0.583330     Biso  1.000000 H
   C4         1.0     0.197990      0.500000      0.647300     Biso  1.000000 C
   H2         1.0     0.231650      0.500000      0.638540     Biso  1.000000 H
   O1         1.0     0.559290      0.000000      0.608320     Biso  1.000000 O
   C3         1.0     0.668080      0.000000      0.616960     Biso  1.000000 C
   H1         1.0     0.676960      0.000000      0.583330     Biso  1.000000 H
   C4         1.0     0.697990      0.000000      0.647300     Biso  1.000000 C
   H2         1.0     0.731650      0.000000      0.638540     Biso  1.000000 H
   O1         1.0     0.559290      0.500000      0.108320     Biso  1.000000 O
   C3         1.0     0.668080      0.500000      0.116960     Biso  1.000000 C
   H1         1.0     0.676960      0.500000      0.083330     Biso  1.000000 H
   C4         1.0     0.697990      0.500000      0.147300     Biso  1.000000 C
   H2         1.0     0.731650      0.500000      0.138540     Biso  1.000000 H
   O1         1.0     0.940710      0.000000      0.108320     Biso  1.000000 O
   C3         1.0     0.831920      0.000000      0.116960     Biso  1.000000 C
   H1         1.0     0.823040      0.000000      0.083330     Biso  1.000000 H
   C4         1.0     0.802010      0.000000      0.147300     Biso  1.000000 C
   H2         1.0     0.768350      0.000000      0.138540     Biso  1.000000 H
   O1         1.0     0.940710      0.500000      0.608320     Biso  1.000000 O
   C3         1.0     0.831920      0.500000      0.616960     Biso  1.000000 C
   H1         1.0     0.823040      0.500000      0.583330     Biso  1.000000 H
   C4         1.0     0.802010      0.500000      0.647300     Biso  1.000000 C
   H2         1.0     0.768350      0.500000      0.638540     Biso  1.000000 H
   O1         1.0     0.440710      0.000000      0.608320     Biso  1.000000 O
   C3         1.0     0.331920      0.000000      0.616960     Biso  1.000000 C
   H1         1.0     0.323040      0.000000      0.583330     Biso  1.000000 H
   C4         1.0     0.302010      0.000000      0.647300     Biso  1.000000 C
   H2         1.0     0.268350      0.000000      0.638540     Biso  1.000000 H
   O1         1.0     0.440710      0.500000      0.108320     Biso  1.000000 O
   C3         1.0     0.331920      0.500000      0.116960     Biso  1.000000 C
   H1         1.0     0.323040      0.500000      0.083330     Biso  1.000000 H
   C4         1.0     0.302010      0.500000      0.147300     Biso  1.000000 C
   H2         1.0     0.268350      0.500000      0.138540     Biso  1.000000 H
   O1         1.0     0.000000      0.108320      0.940710     Biso  1.000000 O
   C3         1.0     0.000000      0.116960      0.831920     Biso  1.000000 C
   H1         1.0     0.000000      0.083330      0.823040     Biso  1.000000 H
   C4         1.0     0.000000      0.147300      0.802010     Biso  1.000000 C
   H2         1.0     0.000000      0.138540      0.768350     Biso  1.000000 H
   O1         1.0     0.000000      0.608320      0.440710     Biso  1.000000 O
   C3         1.0     0.000000      0.616960      0.331920     Biso  1.000000 C
   H1         1.0     0.000000      0.583330      0.323040     Biso  1.000000 H
   C4         1.0     0.000000      0.647300      0.302010     Biso  1.000000 C
   H2         1.0     0.000000      0.638540      0.268350     Biso  1.000000 H
   O1         1.0     0.500000      0.108320      0.440710     Biso  1.000000 O
   C3         1.0     0.500000      0.116960      0.331920     Biso  1.000000 C
   H1         1.0     0.500000      0.083330      0.323040     Biso  1.000000 H
   C4         1.0     0.500000      0.147300      0.302010     Biso  1.000000 C
   H2         1.0     0.500000      0.138540      0.268350     Biso  1.000000 H
   O1         1.0     0.500000      0.608320      0.940710     Biso  1.000000 O
   C3         1.0     0.500000      0.616960      0.831920     Biso  1.000000 C
   H1         1.0     0.500000      0.583330      0.823040     Biso  1.000000 H
   C4         1.0     0.500000      0.647300      0.802010     Biso  1.000000 C
   H2         1.0     0.500000      0.638540      0.768350     Biso  1.000000 H
   O1         1.0     0.000000      0.108320      0.059290     Biso  1.000000 O
   C3         1.0     0.000000      0.116960      0.168080     Biso  1.000000 C
   H1         1.0     0.000000      0.083330      0.176960     Biso  1.000000 H
   C4         1.0     0.000000      0.147300      0.197990     Biso  1.000000 C
   H2         1.0     0.000000      0.138540      0.231650     Biso  1.000000 H
   O1         1.0     0.000000      0.608320      0.559290     Biso  1.000000 O
   C3         1.0     0.000000      0.616960      0.668080     Biso  1.000000 C
   H1         1.0     0.000000      0.583330      0.676960     Biso  1.000000 H
   C4         1.0     0.000000      0.647300      0.697990     Biso  1.000000 C
   H2         1.0     0.000000      0.638540      0.731650     Biso  1.000000 H
   O1         1.0     0.500000      0.108320      0.559290     Biso  1.000000 O
   C3         1.0     0.500000      0.116960      0.668080     Biso  1.000000 C
   H1         1.0     0.500000      0.083330      0.676960     Biso  1.000000 H
   C4         1.0     0.500000      0.147300      0.697990     Biso  1.000000 C
   H2         1.0     0.500000      0.138540      0.731650     Biso  1.000000 H
   O1         1.0     0.500000      0.608320      0.059290     Biso  1.000000 O
   C3         1.0     0.500000      0.616960      0.168080     Biso  1.000000 C
   H1         1.0     0.500000      0.583330      0.176960     Biso  1.000000 H
   C4         1.0     0.500000      0.647300      0.197990     Biso  1.000000 C
   H2         1.0     0.500000      0.638540      0.231650     Biso  1.000000 H
   O1         1.0     0.000000      0.891680      0.940710     Biso  1.000000 O
   C3         1.0     0.000000      0.883040      0.831920     Biso  1.000000 C
   H1         1.0     0.000000      0.916670      0.823040     Biso  1.000000 H
   C4         1.0     0.000000      0.852700      0.802010     Biso  1.000000 C
   H2         1.0     0.000000      0.861460      0.768350     Biso  1.000000 H
   O1         1.0     0.000000      0.391680      0.440710     Biso  1.000000 O
   C3         1.0     0.000000      0.383040      0.331920     Biso  1.000000 C
   H1         1.0     0.000000      0.416670      0.323040     Biso  1.000000 H
   C4         1.0     0.000000      0.352700      0.302010     Biso  1.000000 C
   H2         1.0     0.000000      0.361460      0.268350     Biso  1.000000 H
   O1         1.0     0.500000      0.891680      0.440710     Biso  1.000000 O
   C3         1.0     0.500000      0.883040      0.331920     Biso  1.000000 C
   H1         1.0     0.500000      0.916670      0.323040     Biso  1.000000 H
   C4         1.0     0.500000      0.852700      0.302010     Biso  1.000000 C
   H2         1.0     0.500000      0.861460      0.268350     Biso  1.000000 H
   O1         1.0     0.500000      0.391680      0.940710     Biso  1.000000 O
   C3         1.0     0.500000      0.383040      0.831920     Biso  1.000000 C
   H1         1.0     0.500000      0.416670      0.823040     Biso  1.000000 H
   C4         1.0     0.500000      0.352700      0.802010     Biso  1.000000 C
   H2         1.0     0.500000      0.361460      0.768350     Biso  1.000000 H
   O1         1.0     0.000000      0.891680      0.059290     Biso  1.000000 O
   C3         1.0     0.000000      0.883040      0.168080     Biso  1.000000 C
   H1         1.0     0.000000      0.916670      0.176960     Biso  1.000000 H
   C4         1.0     0.000000      0.852700      0.197990     Biso  1.000000 C
   H2         1.0     0.000000      0.861460      0.231650     Biso  1.000000 H
   O1         1.0     0.000000      0.391680      0.559290     Biso  1.000000 O
   C3         1.0     0.000000      0.383040      0.668080     Biso  1.000000 C
   H1         1.0     0.000000      0.416670      0.676960     Biso  1.000000 H
   C4         1.0     0.000000      0.352700      0.697990     Biso  1.000000 C
   H2         1.0     0.000000      0.361460      0.731650     Biso  1.000000 H
   O1         1.0     0.500000      0.891680      0.559290     Biso  1.000000 O
   C3         1.0     0.500000      0.883040      0.668080     Biso  1.000000 C
   H1         1.0     0.500000      0.916670      0.676960     Biso  1.000000 H
   C4         1.0     0.500000      0.852700      0.697990     Biso  1.000000 C
   H2         1.0     0.500000      0.861460      0.731650     Biso  1.000000 H
   O1         1.0     0.500000      0.391680      0.059290     Biso  1.000000 O
   C3         1.0     0.500000      0.383040      0.168080     Biso  1.000000 C
   H1         1.0     0.500000      0.416670      0.176960     Biso  1.000000 H
   C4         1.0     0.500000      0.352700      0.197990     Biso  1.000000 C
   H2         1.0     0.500000      0.361460      0.231650     Biso  1.000000 H
   O1         1.0     0.108320      0.059290      0.000000     Biso  1.000000 O
   C3         1.0     0.116960      0.168080      0.000000     Biso  1.000000 C
   H1         1.0     0.083330      0.176960      0.000000     Biso  1.000000 H
   C4         1.0     0.147300      0.197990      0.000000     Biso  1.000000 C
   H2         1.0     0.138540      0.231650      0.000000     Biso  1.000000 H
   O1         1.0     0.108320      0.559290      0.500000     Biso  1.000000 O
   C3         1.0     0.116960      0.668080      0.500000     Biso  1.000000 C
   H1         1.0     0.083330      0.676960      0.500000     Biso  1.000000 H
   C4         1.0     0.147300      0.697990      0.500000     Biso  1.000000 C
   H2         1.0     0.138540      0.731650      0.500000     Biso  1.000000 H
   O1         1.0     0.608320      0.059290      0.500000     Biso  1.000000 O
   C3         1.0     0.616960      0.168080      0.500000     Biso  1.000000 C
   H1         1.0     0.583330      0.176960      0.500000     Biso  1.000000 H
   C4         1.0     0.647300      0.197990      0.500000     Biso  1.000000 C
   H2         1.0     0.638540      0.231650      0.500000     Biso  1.000000 H
   O1         1.0     0.608320      0.559290      0.000000     Biso  1.000000 O
   C3         1.0     0.616960      0.668080      0.000000     Biso  1.000000 C
   H1         1.0     0.583330      0.676960      0.000000     Biso  1.000000 H
   C4         1.0     0.647300      0.697990      0.000000     Biso  1.000000 C
   H2         1.0     0.638540      0.731650      0.000000     Biso  1.000000 H
   O1         1.0     0.108320      0.940710      0.000000     Biso  1.000000 O
   C3         1.0     0.116960      0.831920      0.000000     Biso  1.000000 C
   H1         1.0     0.083330      0.823040      0.000000     Biso  1.000000 H
   C4         1.0     0.147300      0.802010      0.000000     Biso  1.000000 C
   H2         1.0     0.138540      0.768350      0.000000     Biso  1.000000 H
   O1         1.0     0.108320      0.440710      0.500000     Biso  1.000000 O
   C3         1.0     0.116960      0.331920      0.500000     Biso  1.000000 C
   H1         1.0     0.083330      0.323040      0.500000     Biso  1.000000 H
   C4         1.0     0.147300      0.302010      0.500000     Biso  1.000000 C
   H2         1.0     0.138540      0.268350      0.500000     Biso  1.000000 H
   O1         1.0     0.608320      0.940710      0.500000     Biso  1.000000 O
   C3         1.0     0.616960      0.831920      0.500000     Biso  1.000000 C
   H1         1.0     0.583330      0.823040      0.500000     Biso  1.000000 H
   C4         1.0     0.647300      0.802010      0.500000     Biso  1.000000 C
   H2         1.0     0.638540      0.768350      0.500000     Biso  1.000000 H
   O1         1.0     0.608320      0.440710      0.000000     Biso  1.000000 O
   C3         1.0     0.616960      0.331920      0.000000     Biso  1.000000 C
   H1         1.0     0.583330      0.323040      0.000000     Biso  1.000000 H
   C4         1.0     0.647300      0.302010      0.000000     Biso  1.000000 C
   H2         1.0     0.638540      0.268350      0.000000     Biso  1.000000 H
   O1         1.0     0.891680      0.059290      0.000000     Biso  1.000000 O
   C3         1.0     0.883040      0.168080      0.000000     Biso  1.000000 C
   H1         1.0     0.916670      0.176960      0.000000     Biso  1.000000 H
   C4         1.0     0.852700      0.197990      0.000000     Biso  1.000000 C
   H2         1.0     0.861460      0.231650      0.000000     Biso  1.000000 H
   O1         1.0     0.891680      0.559290      0.500000     Biso  1.000000 O
   C3         1.0     0.883040      0.668080      0.500000     Biso  1.000000 C
   H1         1.0     0.916670      0.676960      0.500000     Biso  1.000000 H
   C4         1.0     0.852700      0.697990      0.500000     Biso  1.000000 C
   H2         1.0     0.861460      0.731650      0.500000     Biso  1.000000 H
   O1         1.0     0.391680      0.059290      0.500000     Biso  1.000000 O
   C3         1.0     0.383040      0.168080      0.500000     Biso  1.000000 C
   H1         1.0     0.416670      0.176960      0.500000     Biso  1.000000 H
   C4         1.0     0.352700      0.197990      0.500000     Biso  1.000000 C
   H2         1.0     0.361460      0.231650      0.500000     Biso  1.000000 H
   O1         1.0     0.391680      0.559290      0.000000     Biso  1.000000 O
   C3         1.0     0.383040      0.668080      0.000000     Biso  1.000000 C
   H1         1.0     0.416670      0.676960      0.000000     Biso  1.000000 H
   C4         1.0     0.352700      0.697990      0.000000     Biso  1.000000 C
   H2         1.0     0.361460      0.731650      0.000000     Biso  1.000000 H
   O1         1.0     0.891680      0.940710      0.000000     Biso  1.000000 O
   C3         1.0     0.883040      0.831920      0.000000     Biso  1.000000 C
   H1         1.0     0.916670      0.823040      0.000000     Biso  1.000000 H
   C4         1.0     0.852700      0.802010      0.000000     Biso  1.000000 C
   H2         1.0     0.861460      0.768350      0.000000     Biso  1.000000 H
   O1         1.0     0.891680      0.440710      0.500000     Biso  1.000000 O
   C3         1.0     0.883040      0.331920      0.500000     Biso  1.000000 C
   H1         1.0     0.916670      0.323040      0.500000     Biso  1.000000 H
   C4         1.0     0.852700      0.302010      0.500000     Biso  1.000000 C
   H2         1.0     0.861460      0.268350      0.500000     Biso  1.000000 H
   O1         1.0     0.391680      0.940710      0.500000     Biso  1.000000 O
   C3         1.0     0.383040      0.831920      0.500000     Biso  1.000000 C
   H1         1.0     0.416670      0.823040      0.500000     Biso  1.000000 H
   C4         1.0     0.352700      0.802010      0.500000     Biso  1.000000 C
   H2         1.0     0.361460      0.768350      0.500000     Biso  1.000000 H
   O1         1.0     0.391680      0.440710      0.000000     Biso  1.000000 O
   C3         1.0     0.383040      0.331920      0.000000     Biso  1.000000 C
   H1         1.0     0.416670      0.323040      0.000000     Biso  1.000000 H
   C4         1.0     0.352700      0.302010      0.000000     Biso  1.000000 C
   H2         1.0     0.361460      0.268350      0.000000     Biso  1.000000 H
   C1         1.0     0.000000      0.095800      0.095800     Biso  1.000000 C
   C2         1.0     0.000000      0.127890      0.127890     Biso  1.000000 C
   C5         1.0     0.000000      0.187980      0.187980     Biso  1.000000 C
   C6         1.0     0.000000      0.219900      0.219900     Biso  1.000000 C
   C1         1.0     0.000000      0.595800      0.595800     Biso  1.000000 C
   C2         1.0     0.000000      0.627890      0.627890     Biso  1.000000 C
   C5         1.0     0.000000      0.687980      0.687980     Biso  1.000000 C
   C6         1.0     0.000000      0.719900      0.719900     Biso  1.000000 C
   C1         1.0     0.500000      0.095800      0.595800     Biso  1.000000 C
   C2         1.0     0.500000      0.127890      0.627890     Biso  1.000000 C
   C5         1.0     0.500000      0.187980      0.687980     Biso  1.000000 C
   C6         1.0     0.500000      0.219900      0.719900     Biso  1.000000 C
   C1         1.0     0.500000      0.595800      0.095800     Biso  1.000000 C
   C2         1.0     0.500000      0.627890      0.127890     Biso  1.000000 C
   C5         1.0     0.500000      0.687980      0.187980     Biso  1.000000 C
   C6         1.0     0.500000      0.719900      0.219900     Biso  1.000000 C
   C1         1.0     0.000000      0.904200      0.095800     Biso  1.000000 C
   C2         1.0     0.000000      0.872110      0.127890     Biso  1.000000 C
   C5         1.0     0.000000      0.812020      0.187980     Biso  1.000000 C
   C6         1.0     0.000000      0.780100      0.219900     Biso  1.000000 C
   C1         1.0     0.000000      0.404200      0.595800     Biso  1.000000 C
   C2         1.0     0.000000      0.372110      0.627890     Biso  1.000000 C
   C5         1.0     0.000000      0.312020      0.687980     Biso  1.000000 C
   C6         1.0     0.000000      0.280100      0.719900     Biso  1.000000 C
   C1         1.0     0.500000      0.904200      0.595800     Biso  1.000000 C
   C2         1.0     0.500000      0.872110      0.627890     Biso  1.000000 C
   C5         1.0     0.500000      0.812020      0.687980     Biso  1.000000 C
   C6         1.0     0.500000      0.780100      0.719900     Biso  1.000000 C
   C1         1.0     0.500000      0.404200      0.095800     Biso  1.000000 C
   C2         1.0     0.500000      0.372110      0.127890     Biso  1.000000 C
   C5         1.0     0.500000      0.312020      0.187980     Biso  1.000000 C
   C6         1.0     0.500000      0.280100      0.219900     Biso  1.000000 C
   C1         1.0     0.000000      0.095800      0.904200     Biso  1.000000 C
   C2         1.0     0.000000      0.127890      0.872110     Biso  1.000000 C
   C5         1.0     0.000000      0.187980      0.812020     Biso  1.000000 C
   C6         1.0     0.000000      0.219900      0.780100     Biso  1.000000 C
   C1         1.0     0.000000      0.595800      0.404200     Biso  1.000000 C
   C2         1.0     0.000000      0.627890      0.372110     Biso  1.000000 C
   C5         1.0     0.000000      0.687980      0.312020     Biso  1.000000 C
   C6         1.0     0.000000      0.719900      0.280100     Biso  1.000000 C
   C1         1.0     0.500000      0.095800      0.404200     Biso  1.000000 C
   C2         1.0     0.500000      0.127890      0.372110     Biso  1.000000 C
   C5         1.0     0.500000      0.187980      0.312020     Biso  1.000000 C
   C6         1.0     0.500000      0.219900      0.280100     Biso  1.000000 C
   C1         1.0     0.500000      0.595800      0.904200     Biso  1.000000 C
   C2         1.0     0.500000      0.627890      0.872110     Biso  1.000000 C
   C5         1.0     0.500000      0.687980      0.812020     Biso  1.000000 C
   C6         1.0     0.500000      0.719900      0.780100     Biso  1.000000 C
   C1         1.0     0.000000      0.904200      0.904200     Biso  1.000000 C
   C2         1.0     0.000000      0.872110      0.872110     Biso  1.000000 C
   C5         1.0     0.000000      0.812020      0.812020     Biso  1.000000 C
   C6         1.0     0.000000      0.780100      0.780100     Biso  1.000000 C
   C1         1.0     0.000000      0.404200      0.404200     Biso  1.000000 C
   C2         1.0     0.000000      0.372110      0.372110     Biso  1.000000 C
   C5         1.0     0.000000      0.312020      0.312020     Biso  1.000000 C
   C6         1.0     0.000000      0.280100      0.280100     Biso  1.000000 C
   C1         1.0     0.500000      0.904200      0.404200     Biso  1.000000 C
   C2         1.0     0.500000      0.872110      0.372110     Biso  1.000000 C
   C5         1.0     0.500000      0.812020      0.312020     Biso  1.000000 C
   C6         1.0     0.500000      0.780100      0.280100     Biso  1.000000 C
   C1         1.0     0.500000      0.404200      0.904200     Biso  1.000000 C
   C2         1.0     0.500000      0.372110      0.872110     Biso  1.000000 C
   C5         1.0     0.500000      0.312020      0.812020     Biso  1.000000 C
   C6         1.0     0.500000      0.280100      0.780100     Biso  1.000000 C
   C1         1.0     0.095800      0.000000      0.095800     Biso  1.000000 C
   C2         1.0     0.127890      0.000000      0.127890     Biso  1.000000 C
   C5         1.0     0.187980      0.000000      0.187980     Biso  1.000000 C
   C6         1.0     0.219900      0.000000      0.219900     Biso  1.000000 C
   C1         1.0     0.095800      0.500000      0.595800     Biso  1.000000 C
   C2         1.0     0.127890      0.500000      0.627890     Biso  1.000000 C
   C5         1.0     0.187980      0.500000      0.687980     Biso  1.000000 C
   C6         1.0     0.219900      0.500000      0.719900     Biso  1.000000 C
   C1         1.0     0.595800      0.000000      0.595800     Biso  1.000000 C
   C2         1.0     0.627890      0.000000      0.627890     Biso  1.000000 C
   C5         1.0     0.687980      0.000000      0.687980     Biso  1.000000 C
   C6         1.0     0.719900      0.000000      0.719900     Biso  1.000000 C
   C1         1.0     0.595800      0.500000      0.095800     Biso  1.000000 C
   C2         1.0     0.627890      0.500000      0.127890     Biso  1.000000 C
   C5         1.0     0.687980      0.500000      0.187980     Biso  1.000000 C
   C6         1.0     0.719900      0.500000      0.219900     Biso  1.000000 C
   C1         1.0     0.095800      0.000000      0.904200     Biso  1.000000 C
   C2         1.0     0.127890      0.000000      0.872110     Biso  1.000000 C
   C5         1.0     0.187980      0.000000      0.812020     Biso  1.000000 C
   C6         1.0     0.219900      0.000000      0.780100     Biso  1.000000 C
   C1         1.0     0.095800      0.500000      0.404200     Biso  1.000000 C
   C2         1.0     0.127890      0.500000      0.372110     Biso  1.000000 C
   C5         1.0     0.187980      0.500000      0.312020     Biso  1.000000 C
   C6         1.0     0.219900      0.500000      0.280100     Biso  1.000000 C
   C1         1.0     0.595800      0.000000      0.404200     Biso  1.000000 C
   C2         1.0     0.627890      0.000000      0.372110     Biso  1.000000 C
   C5         1.0     0.687980      0.000000      0.312020     Biso  1.000000 C
   C6         1.0     0.719900      0.000000      0.280100     Biso  1.000000 C
   C1         1.0     0.595800      0.500000      0.904200     Biso  1.000000 C
   C2         1.0     0.627890      0.500000      0.872110     Biso  1.000000 C
   C5         1.0     0.687980      0.500000      0.812020     Biso  1.000000 C
   C6         1.0     0.719900      0.500000      0.780100     Biso  1.000000 C
   C1         1.0     0.904200      0.000000      0.095800     Biso  1.000000 C
   C2         1.0     0.872110      0.000000      0.127890     Biso  1.000000 C
   C5         1.0     0.812020      0.000000      0.187980     Biso  1.000000 C
   C6         1.0     0.780100      0.000000      0.219900     Biso  1.000000 C
   C1         1.0     0.904200      0.500000      0.595800     Biso  1.000000 C
   C2         1.0     0.872110      0.500000      0.627890     Biso  1.000000 C
   C5         1.0     0.812020      0.500000      0.687980     Biso  1.000000 C
   C6         1.0     0.780100      0.500000      0.719900     Biso  1.000000 C
   C1         1.0     0.404200      0.000000      0.595800     Biso  1.000000 C
   C2         1.0     0.372110      0.000000      0.627890     Biso  1.000000 C
   C5         1.0     0.312020      0.000000      0.687980     Biso  1.000000 C
   C6         1.0     0.280100      0.000000      0.719900     Biso  1.000000 C
   C1         1.0     0.404200      0.500000      0.095800     Biso  1.000000 C
   C2         1.0     0.372110      0.500000      0.127890     Biso  1.000000 C
   C5         1.0     0.312020      0.500000      0.187980     Biso  1.000000 C
   C6         1.0     0.280100      0.500000      0.219900     Biso  1.000000 C
   C1         1.0     0.904200      0.000000      0.904200     Biso  1.000000 C
   C2         1.0     0.872110      0.000000      0.872110     Biso  1.000000 C
   C5         1.0     0.812020      0.000000      0.812020     Biso  1.000000 C
   C6         1.0     0.780100      0.000000      0.780100     Biso  1.000000 C
   C1         1.0     0.904200      0.500000      0.404200     Biso  1.000000 C
   C2         1.0     0.872110      0.500000      0.372110     Biso  1.000000 C
   C5         1.0     0.812020      0.500000      0.312020     Biso  1.000000 C
   C6         1.0     0.780100      0.500000      0.280100     Biso  1.000000 C
   C1         1.0     0.404200      0.000000      0.404200     Biso  1.000000 C
   C2         1.0     0.372110      0.000000      0.372110     Biso  1.000000 C
   C5         1.0     0.312020      0.000000      0.312020     Biso  1.000000 C
   C6         1.0     0.280100      0.000000      0.280100     Biso  1.000000 C
   C1         1.0     0.404200      0.500000      0.904200     Biso  1.000000 C
   C2         1.0     0.372110      0.500000      0.872110     Biso  1.000000 C
   C5         1.0     0.312020      0.500000      0.812020     Biso  1.000000 C
   C6         1.0     0.280100      0.500000      0.780100     Biso  1.000000 C
   C1         1.0     0.095800      0.095800      0.000000     Biso  1.000000 C
   C2         1.0     0.127890      0.127890      0.000000     Biso  1.000000 C
   C5         1.0     0.187980      0.187980      0.000000     Biso  1.000000 C
   C6         1.0     0.219900      0.219900      0.000000     Biso  1.000000 C
   C1         1.0     0.095800      0.595800      0.500000     Biso  1.000000 C
   C2         1.0     0.127890      0.627890      0.500000     Biso  1.000000 C
   C5         1.0     0.187980      0.687980      0.500000     Biso  1.000000 C
   C6         1.0     0.219900      0.719900      0.500000     Biso  1.000000 C
   C1         1.0     0.595800      0.095800      0.500000     Biso  1.000000 C
   C2         1.0     0.627890      0.127890      0.500000     Biso  1.000000 C
   C5         1.0     0.687980      0.187980      0.500000     Biso  1.000000 C
   C6         1.0     0.719900      0.219900      0.500000     Biso  1.000000 C
   C1         1.0     0.595800      0.595800      0.000000     Biso  1.000000 C
   C2         1.0     0.627890      0.627890      0.000000     Biso  1.000000 C
   C5         1.0     0.687980      0.687980      0.000000     Biso  1.000000 C
   C6         1.0     0.719900      0.719900      0.000000     Biso  1.000000 C
   C1         1.0     0.904200      0.095800      0.000000     Biso  1.000000 C
   C2         1.0     0.872110      0.127890      0.000000     Biso  1.000000 C
   C5         1.0     0.812020      0.187980      0.000000     Biso  1.000000 C
   C6         1.0     0.780100      0.219900      0.000000     Biso  1.000000 C
   C1         1.0     0.904200      0.595800      0.500000     Biso  1.000000 C
   C2         1.0     0.872110      0.627890      0.500000     Biso  1.000000 C
   C5         1.0     0.812020      0.687980      0.500000     Biso  1.000000 C
   C6         1.0     0.780100      0.719900      0.500000     Biso  1.000000 C
   C1         1.0     0.404200      0.095800      0.500000     Biso  1.000000 C
   C2         1.0     0.372110      0.127890      0.500000     Biso  1.000000 C
   C5         1.0     0.312020      0.187980      0.500000     Biso  1.000000 C
   C6         1.0     0.280100      0.219900      0.500000     Biso  1.000000 C
   C1         1.0     0.404200      0.595800      0.000000     Biso  1.000000 C
   C2         1.0     0.372110      0.627890      0.000000     Biso  1.000000 C
   C5         1.0     0.312020      0.687980      0.000000     Biso  1.000000 C
   C6         1.0     0.280100      0.719900      0.000000     Biso  1.000000 C
   C1         1.0     0.095800      0.904200      0.000000     Biso  1.000000 C
   C2         1.0     0.127890      0.872110      0.000000     Biso  1.000000 C
   C5         1.0     0.187980      0.812020      0.000000     Biso  1.000000 C
   C6         1.0     0.219900      0.780100      0.000000     Biso  1.000000 C
   C1         1.0     0.095800      0.404200      0.500000     Biso  1.000000 C
   C2         1.0     0.127890      0.372110      0.500000     Biso  1.000000 C
   C5         1.0     0.187980      0.312020      0.500000     Biso  1.000000 C
   C6         1.0     0.219900      0.280100      0.500000     Biso  1.000000 C
   C1         1.0     0.595800      0.904200      0.500000     Biso  1.000000 C
   C2         1.0     0.627890      0.872110      0.500000     Biso  1.000000 C
   C5         1.0     0.687980      0.812020      0.500000     Biso  1.000000 C
   C6         1.0     0.719900      0.780100      0.500000     Biso  1.000000 C
   C1         1.0     0.595800      0.404200      0.000000     Biso  1.000000 C
   C2         1.0     0.627890      0.372110      0.000000     Biso  1.000000 C
   C5         1.0     0.687980      0.312020      0.000000     Biso  1.000000 C
   C6         1.0     0.719900      0.280100      0.000000     Biso  1.000000 C
   C1         1.0     0.904200      0.904200      0.000000     Biso  1.000000 C
   C2         1.0     0.872110      0.872110      0.000000     Biso  1.000000 C
   C5         1.0     0.812020      0.812020      0.000000     Biso  1.000000 C
   C6         1.0     0.780100      0.780100      0.000000     Biso  1.000000 C
   C1         1.0     0.904200      0.404200      0.500000     Biso  1.000000 C
   C2         1.0     0.872110      0.372110      0.500000     Biso  1.000000 C
   C5         1.0     0.812020      0.312020      0.500000     Biso  1.000000 C
   C6         1.0     0.780100      0.280100      0.500000     Biso  1.000000 C
   C1         1.0     0.404200      0.904200      0.500000     Biso  1.000000 C
   C2         1.0     0.372110      0.872110      0.500000     Biso  1.000000 C
   C5         1.0     0.312020      0.812020      0.500000     Biso  1.000000 C
   C6         1.0     0.280100      0.780100      0.500000     Biso  1.000000 C
   C1         1.0     0.404200      0.404200      0.000000     Biso  1.000000 C
   C2         1.0     0.372110      0.372110      0.000000     Biso  1.000000 C
   C5         1.0     0.312020      0.312020      0.000000     Biso  1.000000 C
   C6         1.0     0.280100      0.280100      0.000000     Biso  1.000000 C
   H3         1.0     0.808820      0.750170      0.556260     Biso  1.000000 H
   H3         1.0     0.749830      0.691180      0.443740     Biso  1.000000 H
   H3         1.0     0.691180      0.749830      0.443740     Biso  1.000000 H
   H3         1.0     0.750170      0.808820      0.556260     Biso  1.000000 H
   H3         1.0     0.056260      0.808820      0.250170     Biso  1.000000 H
   H3         1.0     0.943740      0.749830      0.191180     Biso  1.000000 H
   H3         1.0     0.943740      0.691180      0.249830     Biso  1.000000 H
   H3         1.0     0.056260      0.750170      0.308820     Biso  1.000000 H
   H3         1.0     0.443740      0.691180      0.250170     Biso  1.000000 H
   H3         1.0     0.556260      0.750170      0.191180     Biso  1.000000 H
   H3         1.0     0.556260      0.808820      0.249830     Biso  1.000000 H
   H3         1.0     0.443740      0.749830      0.308820     Biso  1.000000 H
   H3         1.0     0.249830      0.556260      0.191180     Biso  1.000000 H
   H3         1.0     0.308820      0.443740      0.250170     Biso  1.000000 H
   H3         1.0     0.250170      0.443740      0.308820     Biso  1.000000 H
   H3         1.0     0.191180      0.556260      0.249830     Biso  1.000000 H
   H3         1.0     0.749830      0.556260      0.691180     Biso  1.000000 H
   H3         1.0     0.808820      0.443740      0.750170     Biso  1.000000 H
   H3         1.0     0.750170      0.443740      0.808820     Biso  1.000000 H
   H3         1.0     0.691180      0.556260      0.749830     Biso  1.000000 H
   H3         1.0     0.443740      0.191180      0.750170     Biso  1.000000 H
   H3         1.0     0.556260      0.250170      0.691180     Biso  1.000000 H
   H3         1.0     0.556260      0.308820      0.749830     Biso  1.000000 H
   H3         1.0     0.443740      0.249830      0.808820     Biso  1.000000 H
   H3         1.0     0.249830      0.443740      0.808820     Biso  1.000000 H
   H3         1.0     0.308820      0.556260      0.749830     Biso  1.000000 H
   H3         1.0     0.250170      0.556260      0.691180     Biso  1.000000 H
   H3         1.0     0.191180      0.443740      0.750170     Biso  1.000000 H
   H3         1.0     0.191180      0.249830      0.556260     Biso  1.000000 H
   H3         1.0     0.250170      0.308820      0.443740     Biso  1.000000 H
   H3         1.0     0.308820      0.250170      0.443740     Biso  1.000000 H
   H3         1.0     0.249830      0.191180      0.556260     Biso  1.000000 H
   H3         1.0     0.750170      0.943740      0.691180     Biso  1.000000 H
   H3         1.0     0.691180      0.056260      0.750170     Biso  1.000000 H
   H3         1.0     0.749830      0.056260      0.808820     Biso  1.000000 H
   H3         1.0     0.808820      0.943740      0.749830     Biso  1.000000 H
   H3         1.0     0.556260      0.808820      0.750170     Biso  1.000000 H
   H3         1.0     0.443740      0.749830      0.691180     Biso  1.000000 H
   H3         1.0     0.443740      0.691180      0.749830     Biso  1.000000 H
   H3         1.0     0.556260      0.750170      0.808820     Biso  1.000000 H
   H3         1.0     0.308820      0.749830      0.443740     Biso  1.000000 H
   H3         1.0     0.249830      0.808820      0.556260     Biso  1.000000 H
   H3         1.0     0.191180      0.750170      0.556260     Biso  1.000000 H
   H3         1.0     0.250170      0.691180      0.443740     Biso  1.000000 H
   H3         1.0     0.808820      0.249830      0.443740     Biso  1.000000 H
   H3         1.0     0.749830      0.308820      0.556260     Biso  1.000000 H
   H3         1.0     0.691180      0.250170      0.556260     Biso  1.000000 H
   H3         1.0     0.750170      0.191180      0.443740     Biso  1.000000 H
   H3         1.0     0.750170      0.443740      0.191180     Biso  1.000000 H
   H3         1.0     0.691180      0.556260      0.250170     Biso  1.000000 H
   H3         1.0     0.749830      0.556260      0.308820     Biso  1.000000 H
   H3         1.0     0.808820      0.443740      0.249830     Biso  1.000000 H
   H3         1.0     0.556260      0.308820      0.250170     Biso  1.000000 H
   H3         1.0     0.443740      0.249830      0.191180     Biso  1.000000 H
   H3         1.0     0.443740      0.191180      0.249830     Biso  1.000000 H
   H3         1.0     0.556260      0.250170      0.308820     Biso  1.000000 H
   H3         1.0     0.308820      0.249830      0.943740     Biso  1.000000 H
   H3         1.0     0.249830      0.308820      0.056260     Biso  1.000000 H
   H3         1.0     0.191180      0.250170      0.056260     Biso  1.000000 H
   H3         1.0     0.250170      0.191180      0.943740     Biso  1.000000 H
   H3         1.0     0.750170      0.056260      0.308820     Biso  1.000000 H
   H3         1.0     0.691180      0.943740      0.249830     Biso  1.000000 H
   H3         1.0     0.749830      0.943740      0.191180     Biso  1.000000 H
   H3         1.0     0.808820      0.056260      0.250170     Biso  1.000000 H
   H3         1.0     0.249830      0.056260      0.691180     Biso  1.000000 H
   H3         1.0     0.308820      0.943740      0.750170     Biso  1.000000 H
   H3         1.0     0.250170      0.943740      0.808820     Biso  1.000000 H
   H3         1.0     0.191180      0.056260      0.749830     Biso  1.000000 H
   H3         1.0     0.249830      0.943740      0.308820     Biso  1.000000 H
   H3         1.0     0.308820      0.056260      0.249830     Biso  1.000000 H
   H3         1.0     0.250170      0.056260      0.191180     Biso  1.000000 H
   H3         1.0     0.191180      0.943740      0.250170     Biso  1.000000 H
   H3         1.0     0.691180      0.249830      0.056260     Biso  1.000000 H
   H3         1.0     0.750170      0.308820      0.943740     Biso  1.000000 H
   H3         1.0     0.808820      0.250170      0.943740     Biso  1.000000 H
   H3         1.0     0.749830      0.191180      0.056260     Biso  1.000000 H
   H3         1.0     0.691180      0.750170      0.943740     Biso  1.000000 H
   H3         1.0     0.750170      0.691180      0.056260     Biso  1.000000 H
   H3         1.0     0.808820      0.749830      0.056260     Biso  1.000000 H
   H3         1.0     0.749830      0.808820      0.943740     Biso  1.000000 H
   H3         1.0     0.308820      0.750170      0.056260     Biso  1.000000 H
   H3         1.0     0.249830      0.691180      0.943740     Biso  1.000000 H
   H3         1.0     0.191180      0.749830      0.943740     Biso  1.000000 H
   H3         1.0     0.250170      0.808820      0.056260     Biso  1.000000 H
   H3         1.0     0.943740      0.691180      0.750170     Biso  1.000000 H
   H3         1.0     0.056260      0.750170      0.691180     Biso  1.000000 H
   H3         1.0     0.056260      0.808820      0.749830     Biso  1.000000 H
   H3         1.0     0.943740      0.749830      0.808820     Biso  1.000000 H
   H3         1.0     0.056260      0.191180      0.749830     Biso  1.000000 H
   H3         1.0     0.943740      0.250170      0.808820     Biso  1.000000 H
   H3         1.0     0.943740      0.308820      0.750170     Biso  1.000000 H
   H3         1.0     0.056260      0.249830      0.691180     Biso  1.000000 H
   H3         1.0     0.943740      0.308820      0.249830     Biso  1.000000 H
   H3         1.0     0.056260      0.249830      0.308820     Biso  1.000000 H
   H3         1.0     0.056260      0.191180      0.250170     Biso  1.000000 H
   H3         1.0     0.943740      0.250170      0.191180     Biso  1.000000 H
